
 OpenBabel07302502303D

 41 43  0  0  1  0  0  0  0  0999 V2000
   16.3620   32.6110  -19.8040 N   0  0  0  0  0  4  0  0  0  0  0  0
   14.9940   32.8750  -19.8270 C   0  0  0  0  0  0  0  0  0  0  0  0
   14.2150   32.6050  -18.7050 N   0  0  0  0  0  4  0  0  0  0  0  0
   12.8470   32.8680  -18.7280 C   0  0  0  0  0  0  0  0  0  0  0  0
   12.2600   33.4010  -19.8720 N   0  0  0  0  0  0  0  0  0  0  0  0
   13.0400   33.6710  -20.9950 C   0  0  0  0  0  3  0  0  0  0  0  0
   14.3870   33.4270  -21.0100 C   0  0  0  0  0  0  0  0  0  0  0  0
   15.1930   33.7060  -22.1710 C   0  0  0  0  0  3  0  0  0  0  0  0
   16.6080   33.4330  -22.1470 C   0  0  0  0  0  3  0  0  0  0  0  0
   16.9500   32.0780  -18.6590 C   0  0  0  0  0  2  0  0  0  0  0  0
   18.1970   31.8380  -18.6380 O   0  0  0  0  0  0  0  0  0  0  0  0
   12.0240   32.5830  -17.5430 N   0  0  0  0  0  4  0  0  0  0  0  0
   11.0230   32.7760  -17.5600 H   0  0  0  0  0  0  0  0  0  0  0  0
   17.2490   32.8510  -20.8980 C   0  0  1  0  0  3  0  0  0  0  0  0
   18.2250   33.6160  -20.1660 C   0  0  0  0  0  2  0  0  0  0  0  0
   18.5930   34.9340  -20.6170 C   0  0  0  0  0  3  0  0  0  0  0  0
   19.5680   35.6980  -19.8840 C   0  0  0  0  0  0  0  0  0  0  0  0
   19.9370   37.0150  -20.3350 C   0  0  0  0  0  1  0  0  0  0  0  0
   16.8800   31.5340  -20.4460 C   0  0  2  0  0  3  0  0  0  0  0  0
   18.9750   32.9340  -18.7020 Cl  0  0  0  0  0  0  0  0  0  0  0  0
   20.2090   35.1170  -18.6350 C   0  0  0  0  0  0  0  0  0  0  0  0
   21.4550   34.4000  -18.7310 C   0  0  0  0  0  3  0  0  0  0  0  0
   22.0720   34.2400  -19.9690 N   0  0  0  0  0  0  0  0  0  0  0  0
   21.4860   34.7730  -21.1140 C   0  0  0  0  0  1  0  0  0  0  0  0
   19.4480   35.3140  -17.1100 S   0  0  0  0  0  0  0  0  0  0  0  0
   12.6440   32.0210  -16.3350 C   0  0  0  0  0  0  0  0  0  0  0  0
   12.7980   32.8360  -15.1580 C   0  0  0  0  0  3  0  0  0  0  0  0
   12.3440   34.2030  -15.1650 C   0  0  0  0  0  3  0  0  0  0  0  0
   12.4980   35.0190  -13.9880 C   0  0  1  0  0  3  0  0  0  0  0  0
   12.0440   36.3860  -13.9950 C   0  0  0  0  0  1  0  0  0  0  0  0
   13.0980   30.6540  -16.3290 C   0  0  0  0  0  1  0  0  0  0  0  0
   13.1180   34.4560  -12.7800 N   0  0  0  0  0  0  0  0  0  0  0  0
   14.4960   34.8220  -12.4240 C   0  0  0  0  0  2  0  0  0  0  0  0
   15.4360   34.4090  -13.5450 C   0  0  0  0  0  2  0  0  0  0  0  0
   15.0510   35.0990  -14.7850 N   0  0  0  0  0  4  0  0  0  0  0  0
   15.1370   36.5530  -14.5840 C   0  0  0  0  0  1  0  0  0  0  0  0
   12.3600   33.5290  -11.9280 C   0  0  0  0  0  1  0  0  0  0  0  0
   15.9600   34.7000  -15.8690 C   0  0  0  0  0  1  0  0  0  0  0  0
   14.0950   34.8460  -15.0320 H   0  0  0  0  0  0  0  0  0  0  0  0
   17.2930   31.6440  -21.8430 C   0  0  0  0  0  2  0  0  0  0  0  0
   17.1860   32.8950  -20.9880 C   0  0  0  0  0  2  0  0  0  0  0  0
  1 10  1  0  0  0  0
  2  1  1  0  0  0  0
  2  3  2  0  0  0  0
  4  3  2  0  0  0  0
  4 12  1  0  0  0  0
  5  4  2  0  0  0  0
  6  5  1  0  0  0  0
  7  6  2  0  0  0  0
  7  2  1  0  0  0  0
  8  9  2  0  0  0  0
  8  7  1  0  0  0  0
  9 41  1  0  0  0  0
 10 11  1  0  0  0  0
 12 26  2  0  0  0  0
 13 12  1  0  0  0  0
 14 19  1  0  0  0  0
 14 15  1  1  0  0  0
 14  1  1  0  0  0  0
 16 15  1  0  0  0  0
 16 17  2  0  0  0  0
 17 21  1  0  0  0  0
 18 17  1  0  0  0  0
 19 40  1  6  0  0  0
 19  1  1  0  0  0  0
 20 11  1  0  0  0  0
 21 25  2  0  0  0  0
 22 21  1  0  0  0  0
 23 22  2  0  0  0  0
 24 23  1  0  0  0  0
 26 31  1  0  0  0  0
 26 27  1  0  0  0  0
 28 27  2  0  0  0  0
 28 29  1  0  0  0  0
 29 30  1  1  0  0  0
 29 32  1  0  0  0  0
 32 33  1  0  0  0  0
 32 37  1  0  0  0  0
 34 33  1  0  0  0  0
 35 36  1  0  0  0  0
 35 34  1  0  0  0  0
 38 35  1  0  0  0  0
 39 35  1  0  0  0  0
 40 41  1  0  0  0  0
M  END
>  <minimizedAffinity>
-8.49999905

$$$$
