
 OpenBabel07302502303D

 41 43  0  0  1  0  0  0  0  0999 V2000
   13.3340   33.4510  -17.7040 N   0  0  0  0  0  4  0  0  0  0  0  0
   13.7410   34.0900  -18.8730 C   0  0  0  0  0  0  0  0  0  0  0  0
   15.0550   33.9560  -19.3180 N   0  0  0  0  0  4  0  0  0  0  0  0
   15.4620   34.5950  -20.4860 C   0  0  0  0  0  0  0  0  0  0  0  0
   14.5570   35.3670  -21.2100 N   0  0  0  0  0  0  0  0  0  0  0  0
   13.2430   35.5010  -20.7650 C   0  0  0  0  0  3  0  0  0  0  0  0
   12.8050   34.8880  -19.6220 C   0  0  0  0  0  0  0  0  0  0  0  0
   11.4470   35.0260  -19.1610 C   0  0  0  0  0  3  0  0  0  0  0  0
   11.0260   34.3660  -17.9530 C   0  0  0  0  0  3  0  0  0  0  0  0
   14.2400   32.6790  -16.9810 C   0  0  0  0  0  2  0  0  0  0  0  0
   13.8680   32.0960  -15.9150 O   0  0  0  0  0  0  0  0  0  0  0  0
   16.8480   34.4540  -20.9570 N   0  0  0  0  0  4  0  0  0  0  0  0
   17.1460   34.9220  -21.8130 H   0  0  0  0  0  0  0  0  0  0  0  0
   12.0150   33.5230  -17.1630 C   0  0  2  0  0  3  0  0  0  0  0  0
   12.4010   33.9230  -15.8340 C   0  0  0  0  0  3  0  0  0  0  0  0
   11.8510   35.1210  -15.2540 C   0  0  0  0  0  3  0  0  0  0  0  0
   12.2380   35.5200  -13.9250 C   0  0  2  0  0  3  0  0  0  0  0  0
   11.6880   36.7180  -13.3450 C   0  0  0  0  0  1  0  0  0  0  0  0
   12.5640   32.3250  -17.7430 C   0  0  1  0  0  3  0  0  0  0  0  0
   13.5590   32.9360  -14.9090 Cl  0  0  0  0  0  0  0  0  0  0  0  0
   13.2260   34.6780  -13.1350 C   0  0  0  0  0  0  0  0  0  0  0  0
   12.7470   33.7090  -12.1830 C   0  0  0  0  0  3  0  0  0  0  0  0
   11.3780   33.5440  -11.9860 N   0  0  0  0  0  0  0  0  0  0  0  0
   10.4720   34.3160  -12.7110 C   0  0  0  0  0  1  0  0  0  0  0  0
   14.9120   34.8810  -13.3780 S   0  0  0  0  0  0  0  0  0  0  0  0
   17.8040   33.6390  -20.1930 C   0  0  0  0  0  0  0  0  0  0  0  0
   18.8050   34.2780  -19.3780 C   0  0  0  0  0  2  0  0  0  0  0  0
   18.8690   35.7160  -19.3120 C   0  0  0  0  0  3  0  0  0  0  0  0
   19.8700   36.3550  -18.4970 C   0  0  0  0  0  0  0  0  0  0  0  0
   19.9350   37.7920  -18.4300 C   0  0  0  0  0  1  0  0  0  0  0  0
   17.7390   32.2020  -20.2600 C   0  0  0  0  0  1  0  0  0  0  0  0
   20.8260   35.5390  -17.7340 N   0  0  0  0  0  0  0  0  0  0  0  0
   22.2350   35.4800  -18.1480 C   0  0  0  0  0  2  0  0  0  0  0  0
   22.3260   34.9250  -19.5600 C   0  0  0  0  0  2  0  0  0  0  0  0
   21.5820   35.8010  -20.4780 N   0  0  0  0  0  4  0  0  0  0  0  0
   22.1600   37.1510  -20.4440 C   0  0  0  0  0  1  0  0  0  0  0  0
   20.3740   34.7850  -16.5560 C   0  0  0  0  0  1  0  0  0  0  0  0
   21.6690   35.2640  -21.8440 C   0  0  0  0  0  1  0  0  0  0  0  0
   20.6040   35.8420  -20.1910 H   0  0  0  0  0  0  0  0  0  0  0  0
   11.0880   32.5100  -17.8640 C   0  0  0  0  0  2  0  0  0  0  0  0
   11.9490   33.5920  -17.2340 C   0  0  0  0  0  2  0  0  0  0  0  0
  1 14  1  0  0  0  0
  1 10  1  0  0  0  0
  2  1  1  0  0  0  0
  3  2  2  0  0  0  0
  4  3  2  0  0  0  0
  5  6  1  0  0  0  0
  5  4  2  0  0  0  0
  6  7  2  0  0  0  0
  7  8  1  0  0  0  0
  7  2  1  0  0  0  0
  8  9  2  0  0  0  0
  9 41  1  0  0  0  0
 10 11  1  0  0  0  0
 11 20  1  0  0  0  0
 12  4  1  0  0  0  0
 12 26  2  0  0  0  0
 13 12  1  0  0  0  0
 14 15  1  1  0  0  0
 15 16  2  0  0  0  0
 16 17  1  0  0  0  0
 17 18  1  6  0  0  0
 17 21  1  0  0  0  0
 19 40  1  6  0  0  0
 19  1  1  0  0  0  0
 19 14  1  0  0  0  0
 21 22  1  0  0  0  0
 22 23  2  0  0  0  0
 24 23  1  0  0  0  0
 25 21  2  0  0  0  0
 26 27  1  0  0  0  0
 27 28  1  0  0  0  0
 28 29  2  0  0  0  0
 29 30  1  0  0  0  0
 29 32  1  0  0  0  0
 31 26  1  0  0  0  0
 32 37  1  0  0  0  0
 33 32  1  0  0  0  0
 34 33  1  0  0  0  0
 35 36  1  0  0  0  0
 35 39  1  0  0  0  0
 35 34  1  0  0  0  0
 38 35  1  0  0  0  0
 40 41  1  0  0  0  0
M  END
>  <minimizedAffinity>
-9.10784435

$$$$

 OpenBabel07302502303D

 41 42  0  0  1  0  0  0  0  0999 V2000
   16.8760   33.4830  -16.9920 N   0  0  0  0  0  4  0  0  0  0  0  0
   15.5560   33.8720  -16.7730 C   0  0  0  0  0  0  0  0  0  0  0  0
   14.5270   33.2900  -17.5110 N   0  0  0  0  0  4  0  0  0  0  0  0
   13.2080   33.6790  -17.2920 C   0  0  0  0  0  0  0  0  0  0  0  0
   12.9170   34.6490  -16.3370 N   0  0  0  0  0  0  0  0  0  0  0  0
   13.9460   35.2310  -15.5990 C   0  0  0  0  0  3  0  0  0  0  0  0
   15.2550   34.8750  -15.7850 C   0  0  0  0  0  0  0  0  0  0  0  0
   16.3180   35.4770  -15.0230 C   0  0  0  0  0  3  0  0  0  0  0  0
   17.6830   35.0750  -15.2490 C   0  0  0  0  0  3  0  0  0  0  0  0
   17.1660   32.5120  -17.9480 C   0  0  0  0  0  2  0  0  0  0  0  0
   18.3700   32.1580  -18.1470 O   0  0  0  0  0  0  0  0  0  0  0  0
   12.1220   33.0640  -18.0700 N   0  0  0  0  0  4  0  0  0  0  0  0
   11.1560   33.3500  -17.9100 H   0  0  0  0  0  0  0  0  0  0  0  0
   18.0010   34.0160  -16.2920 C   0  0  2  0  0  3  0  0  0  0  0  0
   18.8880   34.3240  -17.3830 C   0  0  0  0  0  3  0  0  0  0  0  0
   19.4760   35.6350  -17.4860 C   0  0  0  0  0  3  0  0  0  0  0  0
   20.3630   35.9420  -18.5780 C   0  0  1  0  0  3  0  0  0  0  0  0
   20.9500   37.2530  -18.6810 C   0  0  0  0  0  1  0  0  0  0  0  0
   17.4140   32.7050  -16.1890 C   0  0  0  0  0  2  0  0  0  0  0  0
   19.2610   33.0830  -18.6050 Cl  0  0  0  0  0  0  0  0  0  0  0  0
   20.6820   34.8830  -19.6210 C   0  0  0  0  0  0  0  0  0  0  0  0
   21.8380   34.0400  -19.4620 C   0  0  0  0  0  3  0  0  0  0  0  0
   22.6650   34.1940  -18.3530 N   0  0  0  0  0  0  0  0  0  0  0  0
   22.3740   35.1640  -17.3960 C   0  0  0  0  0  1  0  0  0  0  0  0
   19.6620   34.6930  -20.9870 S   0  0  0  0  0  0  0  0  0  0  0  0
   12.4290   32.0400  -19.0790 C   0  0  0  0  0  0  0  0  0  0  0  0
   12.6540   32.4240  -20.4490 C   0  0  0  0  0  3  0  0  0  0  0  0
   12.5780   33.8100  -20.8310 C   0  0  0  0  0  3  0  0  0  0  0  0
   12.8030   34.1940  -22.2010 C   0  0  2  0  0  3  0  0  0  0  0  0
   12.7270   35.5810  -22.5820 C   0  0  0  0  0  1  0  0  0  0  0  0
   12.5050   30.6540  -18.6970 C   0  0  0  0  0  1  0  0  0  0  0  0
   13.1090   33.1690  -23.2090 N   0  0  0  0  0  0  0  0  0  0  0  0
   14.4570   32.5860  -23.2780 C   0  0  0  0  0  2  0  0  0  0  0  0
   15.4710   33.6850  -23.5520 C   0  0  0  0  0  2  0  0  0  0  0  0
   15.4210   34.6780  -22.4690 N   0  0  0  0  0  4  0  0  0  0  0  0
   15.7390   34.0260  -21.1910 C   0  0  0  0  0  1  0  0  0  0  0  0
   12.0680   32.7250  -24.1470 C   0  0  0  0  0  1  0  0  0  0  0  0
   16.4010   35.7410  -22.7350 C   0  0  0  0  0  1  0  0  0  0  0  0
   14.4860   35.0830  -22.4210 H   0  0  0  0  0  0  0  0  0  0  0  0
   18.2100   33.2790  -14.9580 C   0  0  0  0  0  1  0  0  0  0  0  0
   17.9610   34.0970  -16.2150 C   0  0  0  0  0  2  0  0  0  0  0  0
  1  2  1  0  0  0  0
  1 14  1  0  0  0  0
  1 19  1  0  0  0  0
  2  7  1  0  0  0  0
  3  4  2  0  0  0  0
  3  2  2  0  0  0  0
  4  5  2  0  0  0  0
  5  6  1  0  0  0  0
  7  6  2  0  0  0  0
  7  8  1  0  0  0  0
  9  8  2  0  0  0  0
 10  1  1  0  0  0  0
 11 10  1  0  0  0  0
 12 13  1  0  0  0  0
 12  4  1  0  0  0  0
 14 15  1  6  0  0  0
 14 19  1  0  0  0  0
 16 15  2  0  0  0  0
 17 18  1  1  0  0  0
 17 16  1  0  0  0  0
 20 11  1  0  0  0  0
 21 22  1  0  0  0  0
 21 17  1  0  0  0  0
 22 23  2  0  0  0  0
 23 24  1  0  0  0  0
 25 21  2  0  0  0  0
 26 31  1  0  0  0  0
 26 12  2  0  0  0  0
 27 26  1  0  0  0  0
 28 27  2  0  0  0  0
 29 30  1  6  0  0  0
 29 28  1  0  0  0  0
 32 29  1  0  0  0  0
 33 32  1  0  0  0  0
 34 33  1  0  0  0  0
 34 35  1  0  0  0  0
 35 39  1  0  0  0  0
 35 36  1  0  0  0  0
 37 32  1  0  0  0  0
 38 35  1  0  0  0  0
 41  9  1  0  0  0  0
 41 40  1  0  0  0  0
M  END
>  <minimizedAffinity>
-8.79611778

$$$$

 OpenBabel07302502303D

 41 42  0  0  1  0  0  0  0  0999 V2000
   16.8880   33.4100  -16.9740 N   0  0  0  0  0  4  0  0  0  0  0  0
   15.5910   33.6900  -16.5480 C   0  0  0  0  0  0  0  0  0  0  0  0
   14.5020   33.1640  -17.2410 N   0  0  0  0  0  4  0  0  0  0  0  0
   13.2060   33.4450  -16.8160 C   0  0  0  0  0  0  0  0  0  0  0  0
   12.9980   34.2490  -15.6990 N   0  0  0  0  0  0  0  0  0  0  0  0
   14.0860   34.7740  -15.0060 C   0  0  0  0  0  3  0  0  0  0  0  0
   15.3750   34.5210  -15.3930 C   0  0  0  0  0  0  0  0  0  0  0  0
   16.5010   35.0640  -14.6760 C   0  0  0  0  0  3  0  0  0  0  0  0
   17.8420   34.7750  -15.1160 C   0  0  0  0  0  3  0  0  0  0  0  0
   17.0950   32.6040  -18.0920 C   0  0  0  0  0  2  0  0  0  0  0  0
   18.2780   32.3490  -18.4790 O   0  0  0  0  0  0  0  0  0  0  0  0
   12.0570   32.8900  -17.5470 N   0  0  0  0  0  4  0  0  0  0  0  0
   11.1070   33.0960  -17.2360 H   0  0  0  0  0  0  0  0  0  0  0  0
   18.0690   33.8970  -16.3360 C   0  0  2  0  0  3  0  0  0  0  0  0
   18.7590   34.4250  -17.4850 C   0  0  0  0  0  3  0  0  0  0  0  0
   19.2330   35.7840  -17.4780 C   0  0  0  0  0  3  0  0  0  0  0  0
   19.9240   36.3110  -18.6270 C   0  0  2  0  0  3  0  0  0  0  0  0
   20.3980   37.6710  -18.6200 C   0  0  0  0  0  1  0  0  0  0  0  0
   17.5940   32.5370  -16.3430 C   0  0  0  0  0  2  0  0  0  0  0  0
   19.0250   33.3960  -18.9130 Cl  0  0  0  0  0  0  0  0  0  0  0  0
   20.1510   35.4330  -19.8460 C   0  0  0  0  0  0  0  0  0  0  0  0
   21.3640   34.6650  -19.9650 C   0  0  0  0  0  3  0  0  0  0  0  0
   22.3280   34.7270  -18.9630 N   0  0  0  0  0  0  0  0  0  0  0  0
   22.1200   35.5310  -17.8440 C   0  0  0  0  0  1  0  0  0  0  0  0
   18.9630   35.3580  -21.0810 S   0  0  0  0  0  0  0  0  0  0  0  0
   12.2760   32.0410  -18.7260 C   0  0  0  0  0  0  0  0  0  0  0  0
   12.1380   32.5950  -20.0480 C   0  0  0  0  0  2  0  0  0  0  0  0
   11.7840   33.9820  -20.2150 C   0  0  0  0  0  3  0  0  0  0  0  0
   11.6460   34.5360  -21.5370 C   0  0  0  0  0  0  0  0  0  0  0  0
   11.2930   35.9220  -21.7030 C   0  0  0  0  0  1  0  0  0  0  0  0
   12.6290   30.6550  -18.5600 C   0  0  0  0  0  1  0  0  0  0  0  0
   11.8650   33.6860  -22.7160 N   0  0  0  0  0  0  0  0  0  0  0  0
   10.7280   33.3020  -23.5660 C   0  0  0  0  0  2  0  0  0  0  0  0
    9.7160   32.5270  -22.7390 C   0  0  0  0  0  2  0  0  0  0  0  0
    9.2380   33.3720  -21.6340 N   0  0  0  0  0  4  0  0  0  0  0  0
    8.6030   34.5800  -22.1790 C   0  0  0  0  0  1  0  0  0  0  0  0
   13.2200   33.2210  -23.0470 C   0  0  0  0  0  1  0  0  0  0  0  0
    8.2590   32.6230  -20.8330 C   0  0  0  0  0  1  0  0  0  0  0  0
   10.0260   33.6380  -21.0440 H   0  0  0  0  0  0  0  0  0  0  0  0
   18.3460   33.0830  -15.0440 C   0  0  0  0  0  1  0  0  0  0  0  0
   18.0360   33.9630  -16.2430 C   0  0  0  0  0  2  0  0  0  0  0  0
  1  2  1  0  0  0  0
  1 19  1  0  0  0  0
  1 14  1  0  0  0  0
  2  7  1  0  0  0  0
  3  4  2  0  0  0  0
  3  2  2  0  0  0  0
  4  5  2  0  0  0  0
  5  6  1  0  0  0  0
  7  6  2  0  0  0  0
  7  8  1  0  0  0  0
  9  8  2  0  0  0  0
 10  1  1  0  0  0  0
 11 10  1  0  0  0  0
 12 13  1  0  0  0  0
 12  4  1  0  0  0  0
 14 15  1  6  0  0  0
 15 16  2  0  0  0  0
 17 18  1  6  0  0  0
 17 16  1  0  0  0  0
 19 14  1  0  0  0  0
 20 11  1  0  0  0  0
 21 17  1  0  0  0  0
 22 21  1  0  0  0  0
 22 23  2  0  0  0  0
 23 24  1  0  0  0  0
 25 21  2  0  0  0  0
 26 31  1  0  0  0  0
 26 12  2  0  0  0  0
 27 26  1  0  0  0  0
 28 27  1  0  0  0  0
 29 28  2  0  0  0  0
 30 29  1  0  0  0  0
 32 29  1  0  0  0  0
 33 34  1  0  0  0  0
 33 32  1  0  0  0  0
 34 35  1  0  0  0  0
 35 39  1  0  0  0  0
 35 38  1  0  0  0  0
 36 35  1  0  0  0  0
 37 32  1  0  0  0  0
 41  9  1  0  0  0  0
 41 40  1  0  0  0  0
M  END
>  <minimizedAffinity>
-8.5211525

$$$$

 OpenBabel07302502303D

 41 42  0  0  1  0  0  0  0  0999 V2000
   17.7530   32.8360  -20.3830 N   0  0  0  0  0  4  0  0  0  0  0  0
   16.4130   33.2050  -20.4750 C   0  0  0  0  0  0  0  0  0  0  0  0
   15.5420   32.9330  -19.4230 N   0  0  0  0  0  4  0  0  0  0  0  0
   14.2020   33.3010  -19.5150 C   0  0  0  0  0  0  0  0  0  0  0  0
   13.7330   33.9420  -20.6590 N   0  0  0  0  0  0  0  0  0  0  0  0
   14.6040   34.2140  -21.7120 C   0  0  0  0  0  3  0  0  0  0  0  0
   15.9280   33.8680  -21.6580 C   0  0  0  0  0  0  0  0  0  0  0  0
   16.8290   34.1490  -22.7460 C   0  0  0  0  0  3  0  0  0  0  0  0
   18.2150   33.7680  -22.6510 C   0  0  0  0  0  3  0  0  0  0  0  0
   18.2220   32.1950  -19.2380 C   0  0  0  0  0  2  0  0  0  0  0  0
   19.4440   31.8600  -19.1540 O   0  0  0  0  0  0  0  0  0  0  0  0
   13.2820   33.0140  -18.4040 N   0  0  0  0  0  4  0  0  0  0  0  0
   12.3010   33.2840  -18.4720 H   0  0  0  0  0  0  0  0  0  0  0  0
   18.7260   33.0680  -21.4020 C   0  0  1  0  0  3  0  0  0  0  0  0
   19.7410   33.6920  -20.5920 C   0  0  0  0  0  2  0  0  0  0  0  0
   20.2720   34.9780  -20.9660 C   0  0  0  0  0  3  0  0  0  0  0  0
   21.2870   35.6000  -20.1560 C   0  0  0  0  0  0  0  0  0  0  0  0
   21.8170   36.8860  -20.5290 C   0  0  0  0  0  1  0  0  0  0  0  0
   18.1960   31.7830  -21.0280 C   0  0  0  0  0  2  0  0  0  0  0  0
   20.3400   32.8730  -19.1290 Cl  0  0  0  0  0  0  0  0  0  0  0  0
   21.7980   34.9010  -18.9070 C   0  0  0  0  0  0  0  0  0  0  0  0
   21.1920   35.1750  -17.6290 C   0  0  0  0  0  3  0  0  0  0  0  0
   20.1380   36.0800  -17.5380 N   0  0  0  0  0  0  0  0  0  0  0  0
   19.6680   36.7200  -18.6820 C   0  0  0  0  0  1  0  0  0  0  0  0
   23.0970   33.7870  -19.0190 S   0  0  0  0  0  0  0  0  0  0  0  0
   13.7770   32.3380  -17.1970 C   0  0  0  0  0  0  0  0  0  0  0  0
   14.1600   33.1120  -16.0440 C   0  0  0  0  0  2  0  0  0  0  0  0
   14.0580   34.5490  -16.0750 C   0  0  0  0  0  3  0  0  0  0  0  0
   14.4410   35.3230  -14.9220 C   0  0  0  0  0  0  0  0  0  0  0  0
   14.3390   36.7590  -14.9530 C   0  0  0  0  0  1  0  0  0  0  0  0
   13.8790   30.9020  -17.1660 C   0  0  0  0  0  1  0  0  0  0  0  0
   14.9360   34.6460  -13.7150 N   0  0  0  0  0  0  0  0  0  0  0  0
   13.9940   33.9600  -12.8190 C   0  0  0  0  0  2  0  0  0  0  0  0
   12.9790   34.9590  -12.2890 C   0  0  0  0  0  2  0  0  0  0  0  0
   12.2410   35.5510  -13.4150 N   0  0  0  0  0  4  0  0  0  0  0  0
   11.5440   34.4910  -14.1560 C   0  0  0  0  0  1  0  0  0  0  0  0
   16.3730   34.6540  -13.4040 C   0  0  0  0  0  1  0  0  0  0  0  0
   11.2600   36.5180  -12.9030 C   0  0  0  0  0  1  0  0  0  0  0  0
   12.8950   36.0280  -14.0370 H   0  0  0  0  0  0  0  0  0  0  0  0
   18.7460   31.9170  -22.4150 C   0  0  0  0  0  1  0  0  0  0  0  0
   18.6730   33.1230  -21.4930 C   0  0  0  0  0  2  0  0  0  0  0  0
  1 10  1  0  0  0  0
  2  1  1  0  0  0  0
  2  3  2  0  0  0  0
  4  3  2  0  0  0  0
  4 12  1  0  0  0  0
  5  4  2  0  0  0  0
  6  7  2  0  0  0  0
  6  5  1  0  0  0  0
  7  2  1  0  0  0  0
  8  9  2  0  0  0  0
  8  7  1  0  0  0  0
  9 41  1  0  0  0  0
 10 11  1  0  0  0  0
 11 20  1  0  0  0  0
 12 26  2  0  0  0  0
 13 12  1  0  0  0  0
 14 19  1  0  0  0  0
 14 15  1  1  0  0  0
 14  1  1  0  0  0  0
 16 15  1  0  0  0  0
 16 17  2  0  0  0  0
 17 21  1  0  0  0  0
 18 17  1  0  0  0  0
 19  1  1  0  0  0  0
 21 22  1  0  0  0  0
 22 23  2  0  0  0  0
 24 23  1  0  0  0  0
 25 21  2  0  0  0  0
 26 31  1  0  0  0  0
 26 27  1  0  0  0  0
 28 27  1  0  0  0  0
 28 29  2  0  0  0  0
 29 32  1  0  0  0  0
 30 29  1  0  0  0  0
 32 37  1  0  0  0  0
 32 33  1  0  0  0  0
 33 34  1  0  0  0  0
 35 38  1  0  0  0  0
 35 34  1  0  0  0  0
 36 35  1  0  0  0  0
 39 35  1  0  0  0  0
 40 41  1  0  0  0  0
M  END
>  <minimizedAffinity>
-8.51565933

$$$$

 OpenBabel07302502303D

 41 43  0  0  1  0  0  0  0  0999 V2000
   16.3620   32.6110  -19.8040 N   0  0  0  0  0  4  0  0  0  0  0  0
   14.9940   32.8750  -19.8270 C   0  0  0  0  0  0  0  0  0  0  0  0
   14.2150   32.6050  -18.7050 N   0  0  0  0  0  4  0  0  0  0  0  0
   12.8470   32.8680  -18.7280 C   0  0  0  0  0  0  0  0  0  0  0  0
   12.2600   33.4010  -19.8720 N   0  0  0  0  0  0  0  0  0  0  0  0
   13.0400   33.6710  -20.9950 C   0  0  0  0  0  3  0  0  0  0  0  0
   14.3870   33.4270  -21.0100 C   0  0  0  0  0  0  0  0  0  0  0  0
   15.1930   33.7060  -22.1710 C   0  0  0  0  0  3  0  0  0  0  0  0
   16.6080   33.4330  -22.1470 C   0  0  0  0  0  3  0  0  0  0  0  0
   16.9500   32.0780  -18.6590 C   0  0  0  0  0  2  0  0  0  0  0  0
   18.1970   31.8380  -18.6380 O   0  0  0  0  0  0  0  0  0  0  0  0
   12.0240   32.5830  -17.5430 N   0  0  0  0  0  4  0  0  0  0  0  0
   11.0230   32.7760  -17.5600 H   0  0  0  0  0  0  0  0  0  0  0  0
   17.2490   32.8510  -20.8980 C   0  0  1  0  0  3  0  0  0  0  0  0
   18.2250   33.6160  -20.1660 C   0  0  0  0  0  2  0  0  0  0  0  0
   18.5930   34.9340  -20.6170 C   0  0  0  0  0  3  0  0  0  0  0  0
   19.5680   35.6980  -19.8840 C   0  0  0  0  0  0  0  0  0  0  0  0
   19.9370   37.0150  -20.3350 C   0  0  0  0  0  1  0  0  0  0  0  0
   16.8800   31.5340  -20.4460 C   0  0  2  0  0  3  0  0  0  0  0  0
   18.9750   32.9340  -18.7020 Cl  0  0  0  0  0  0  0  0  0  0  0  0
   20.2090   35.1170  -18.6350 C   0  0  0  0  0  0  0  0  0  0  0  0
   21.4550   34.4000  -18.7310 C   0  0  0  0  0  3  0  0  0  0  0  0
   22.0720   34.2400  -19.9690 N   0  0  0  0  0  0  0  0  0  0  0  0
   21.4860   34.7730  -21.1140 C   0  0  0  0  0  1  0  0  0  0  0  0
   19.4480   35.3140  -17.1100 S   0  0  0  0  0  0  0  0  0  0  0  0
   12.6440   32.0210  -16.3350 C   0  0  0  0  0  0  0  0  0  0  0  0
   12.7980   32.8360  -15.1580 C   0  0  0  0  0  3  0  0  0  0  0  0
   12.3440   34.2030  -15.1650 C   0  0  0  0  0  3  0  0  0  0  0  0
   12.4980   35.0190  -13.9880 C   0  0  1  0  0  3  0  0  0  0  0  0
   12.0440   36.3860  -13.9950 C   0  0  0  0  0  1  0  0  0  0  0  0
   13.0980   30.6540  -16.3290 C   0  0  0  0  0  1  0  0  0  0  0  0
   13.1180   34.4560  -12.7800 N   0  0  0  0  0  0  0  0  0  0  0  0
   14.4960   34.8220  -12.4240 C   0  0  0  0  0  2  0  0  0  0  0  0
   15.4360   34.4090  -13.5450 C   0  0  0  0  0  2  0  0  0  0  0  0
   15.0510   35.0990  -14.7850 N   0  0  0  0  0  4  0  0  0  0  0  0
   15.1370   36.5530  -14.5840 C   0  0  0  0  0  1  0  0  0  0  0  0
   12.3600   33.5290  -11.9280 C   0  0  0  0  0  1  0  0  0  0  0  0
   15.9600   34.7000  -15.8690 C   0  0  0  0  0  1  0  0  0  0  0  0
   14.0950   34.8460  -15.0320 H   0  0  0  0  0  0  0  0  0  0  0  0
   17.2930   31.6440  -21.8430 C   0  0  0  0  0  2  0  0  0  0  0  0
   17.1860   32.8950  -20.9880 C   0  0  0  0  0  2  0  0  0  0  0  0
  1 10  1  0  0  0  0
  2  1  1  0  0  0  0
  2  3  2  0  0  0  0
  4  3  2  0  0  0  0
  4 12  1  0  0  0  0
  5  4  2  0  0  0  0
  6  5  1  0  0  0  0
  7  6  2  0  0  0  0
  7  2  1  0  0  0  0
  8  9  2  0  0  0  0
  8  7  1  0  0  0  0
  9 41  1  0  0  0  0
 10 11  1  0  0  0  0
 12 26  2  0  0  0  0
 13 12  1  0  0  0  0
 14 19  1  0  0  0  0
 14 15  1  1  0  0  0
 14  1  1  0  0  0  0
 16 15  1  0  0  0  0
 16 17  2  0  0  0  0
 17 21  1  0  0  0  0
 18 17  1  0  0  0  0
 19 40  1  6  0  0  0
 19  1  1  0  0  0  0
 20 11  1  0  0  0  0
 21 25  2  0  0  0  0
 22 21  1  0  0  0  0
 23 22  2  0  0  0  0
 24 23  1  0  0  0  0
 26 31  1  0  0  0  0
 26 27  1  0  0  0  0
 28 27  2  0  0  0  0
 28 29  1  0  0  0  0
 29 30  1  1  0  0  0
 29 32  1  0  0  0  0
 32 33  1  0  0  0  0
 32 37  1  0  0  0  0
 34 33  1  0  0  0  0
 35 36  1  0  0  0  0
 35 34  1  0  0  0  0
 38 35  1  0  0  0  0
 39 35  1  0  0  0  0
 40 41  1  0  0  0  0
M  END
>  <minimizedAffinity>
-8.49999905

$$$$

 OpenBabel07302502303D

 41 42  0  0  1  0  0  0  0  0999 V2000
   13.3850   34.2150  -18.5140 N   0  0  0  0  0  0  0  0  0  0  0  0
   14.1510   33.0530  -18.4430 C   0  0  0  0  0  0  0  0  0  0  0  0
   15.2860   32.9170  -19.2390 N   0  0  0  0  0  4  0  0  0  0  0  0
   16.0510   31.7550  -19.1690 C   0  0  0  0  0  0  0  0  0  0  0  0
   15.6810   30.7300  -18.3030 N   0  0  0  0  0  0  0  0  0  0  0  0
   14.5460   30.8650  -17.5060 C   0  0  0  0  0  3  0  0  0  0  0  0
   13.7690   31.9920  -17.5470 C   0  0  0  0  0  0  0  0  0  0  0  0
   12.5950   32.1320  -16.7240 C   0  0  0  0  0  3  0  0  0  0  0  0
   11.8040   33.3330  -16.7970 C   0  0  0  0  0  3  0  0  0  0  0  0
   13.7560   35.2410  -19.3810 C   0  0  0  0  0  2  0  0  0  0  0  0
   13.0580   36.3010  -19.4440 O   0  0  0  0  0  0  0  0  0  0  0  0
   17.2490   31.6120  -20.0090 N   0  0  0  0  0  4  0  0  0  0  0  0
   17.8090   30.7610  -19.9570 H   0  0  0  0  0  0  0  0  0  0  0  0
   12.2070   34.4530  -17.7430 C   0  0  2  0  0  3  0  0  0  0  0  0
   11.4780   34.6590  -18.9680 C   0  0  0  0  0  3  0  0  0  0  0  0
   10.3660   33.8050  -19.2960 C   0  0  0  0  0  3  0  0  0  0  0  0
    9.6370   34.0120  -20.5210 C   0  0  1  0  0  3  0  0  0  0  0  0
    8.5250   33.1580  -20.8490 C   0  0  0  0  0  1  0  0  0  0  0  0
   13.3190   35.3080  -17.4150 C   0  0  0  0  0  2  0  0  0  0  0  0
   11.9500   35.9710  -20.0750 Cl  0  0  0  0  0  0  0  0  0  0  0  0
   10.0400   35.1310  -21.4660 C   0  0  0  0  0  0  0  0  0  0  0  0
   10.9570   34.8680  -22.5450 C   0  0  0  0  0  3  0  0  0  0  0  0
   11.4760   33.5880  -22.7210 N   0  0  0  0  0  0  0  0  0  0  0  0
   11.1070   32.5610  -21.8550 C   0  0  0  0  0  1  0  0  0  0  0  0
    9.4010   36.7080  -21.2480 S   0  0  0  0  0  0  0  0  0  0  0  0
   17.6400   32.6950  -20.9230 C   0  0  0  0  0  0  0  0  0  0  0  0
   18.3930   33.8190  -20.4280 C   0  0  0  0  0  2  0  0  0  0  0  0
   18.7630   33.8810  -19.0380 C   0  0  0  0  0  3  0  0  0  0  0  0
   19.5170   35.0050  -18.5430 C   0  0  0  0  0  0  0  0  0  0  0  0
   19.8870   35.0670  -17.1520 C   0  0  0  0  0  1  0  0  0  0  0  0
   17.2690   32.6320  -22.3130 C   0  0  0  0  0  1  0  0  0  0  0  0
   19.9070   36.0880  -19.4580 N   0  0  0  0  0  0  0  0  0  0  0  0
   21.0700   35.9200  -20.3400 C   0  0  0  0  0  2  0  0  0  0  0  0
   22.3140   35.6850  -19.5000 C   0  0  0  0  0  2  0  0  0  0  0  0
   22.1350   34.4710  -18.6890 N   0  0  0  0  0  4  0  0  0  0  0  0
   21.9170   33.3180  -19.5750 C   0  0  0  0  0  1  0  0  0  0  0  0
   19.1320   37.3360  -19.4910 C   0  0  0  0  0  1  0  0  0  0  0  0
   23.3380   34.2430  -17.8760 C   0  0  0  0  0  1  0  0  0  0  0  0
   21.3280   34.5870  -18.0770 H   0  0  0  0  0  0  0  0  0  0  0  0
   12.5690   35.0070  -16.3540 C   0  0  0  0  0  2  0  0  0  0  0  0
   12.1880   34.3580  -17.6750 C   0  0  0  0  0  2  0  0  0  0  0  0
  1  2  1  0  0  0  0
  1 14  1  0  0  0  0
  2  7  1  0  0  0  0
  3  4  2  0  0  0  0
  3  2  2  0  0  0  0
  4  5  2  0  0  0  0
  5  6  1  0  0  0  0
  7  6  2  0  0  0  0
  7  8  1  0  0  0  0
  9  8  2  0  0  0  0
 10  1  1  0  0  0  0
 11 10  1  0  0  0  0
 12 13  1  0  0  0  0
 12  4  1  0  0  0  0
 14 15  1  6  0  0  0
 14 19  1  0  0  0  0
 16 15  2  0  0  0  0
 17 18  1  1  0  0  0
 17 16  1  0  0  0  0
 19 40  1  0  0  0  0
 20 11  1  0  0  0  0
 21 25  2  0  0  0  0
 21 17  1  0  0  0  0
 22 21  1  0  0  0  0
 23 22  2  0  0  0  0
 23 24  1  0  0  0  0
 26 27  1  0  0  0  0
 26 12  2  0  0  0  0
 27 28  1  0  0  0  0
 28 29  2  0  0  0  0
 29 30  1  0  0  0  0
 31 26  1  0  0  0  0
 32 29  1  0  0  0  0
 33 34  1  0  0  0  0
 33 32  1  0  0  0  0
 34 35  1  0  0  0  0
 35 39  1  0  0  0  0
 35 38  1  0  0  0  0
 36 35  1  0  0  0  0
 37 32  1  0  0  0  0
 41  9  1  0  0  0  0
 41 40  1  0  0  0  0
M  END
>  <minimizedAffinity>
-8.47407341

$$$$

 OpenBabel07302502303D

 41 43  0  0  1  0  0  0  0  0999 V2000
   14.1660   32.4770  -17.4750 N   0  0  0  0  0  4  0  0  0  0  0  0
   14.9660   33.2690  -16.6540 C   0  0  0  0  0  0  0  0  0  0  0  0
   16.2470   33.6270  -17.0670 N   0  0  0  0  0  4  0  0  0  0  0  0
   17.0470   34.4180  -16.2460 C   0  0  0  0  0  0  0  0  0  0  0  0
   16.5670   34.8510  -15.0130 N   0  0  0  0  0  0  0  0  0  0  0  0
   15.2850   34.4920  -14.6000 C   0  0  0  0  0  3  0  0  0  0  0  0
   14.4690   33.7170  -15.3790 C   0  0  0  0  0  0  0  0  0  0  0  0
   13.1440   33.3460  -14.9520 C   0  0  0  0  0  3  0  0  0  0  0  0
   12.3170   32.5280  -15.8000 C   0  0  0  0  0  3  0  0  0  0  0  0
   14.6470   32.0450  -18.7090 C   0  0  0  0  0  2  0  0  0  0  0  0
   13.9170   31.3230  -19.4570 O   0  0  0  0  0  0  0  0  0  0  0  0
   18.4000   34.7970  -16.6820 N   0  0  0  0  0  4  0  0  0  0  0  0
   18.9850   35.3760  -16.0800 H   0  0  0  0  0  0  0  0  0  0  0  0
   12.8420   32.0550  -17.1470 C   0  0  1  0  0  3  0  0  0  0  0  0
   12.2800   32.5830  -18.3640 C   0  0  0  0  0  3  0  0  0  0  0  0
   11.2220   33.5580  -18.3050 C   0  0  0  0  0  3  0  0  0  0  0  0
   10.6620   34.0850  -19.5230 C   0  0  2  0  0  3  0  0  0  0  0  0
    9.6030   35.0600  -19.4650 C   0  0  0  0  0  1  0  0  0  0  0  0
   13.9000   31.0800  -17.2050 C   0  0  2  0  0  3  0  0  0  0  0  0
   12.8960   32.0300  -19.9400 Cl  0  0  0  0  0  0  0  0  0  0  0  0
   11.1870   33.6130  -20.8690 C   0  0  0  0  0  0  0  0  0  0  0  0
   12.2630   34.3230  -21.5110 C   0  0  0  0  0  3  0  0  0  0  0  0
   12.8230   35.4410  -20.8990 N   0  0  0  0  0  0  0  0  0  0  0  0
   12.3430   35.8730  -19.6650 C   0  0  0  0  0  1  0  0  0  0  0  0
   10.4960   32.2360  -21.6230 S   0  0  0  0  0  0  0  0  0  0  0  0
   18.9070   34.3400  -17.9830 C   0  0  0  0  0  0  0  0  0  0  0  0
   19.6210   35.2530  -18.8380 C   0  0  0  0  0  2  0  0  0  0  0  0
   19.8380   36.6140  -18.4170 C   0  0  0  0  0  3  0  0  0  0  0  0
   20.5520   37.5270  -19.2720 C   0  0  0  0  0  0  0  0  0  0  0  0
   20.7690   38.8870  -18.8510 C   0  0  0  0  0  1  0  0  0  0  0  0
   18.6900   32.9800  -18.4040 C   0  0  0  0  0  1  0  0  0  0  0  0
   21.0590   37.0700  -20.5740 N   0  0  0  0  0  0  0  0  0  0  0  0
   22.2860   36.2630  -20.6420 C   0  0  0  0  0  2  0  0  0  0  0  0
   23.4450   37.0510  -20.0540 C   0  0  0  0  0  2  0  0  0  0  0  0
   23.1510   37.3790  -18.6510 N   0  0  0  0  0  4  0  0  0  0  0  0
   22.9650   36.1380  -17.8860 C   0  0  0  0  0  1  0  0  0  0  0  0
   20.3390   37.4180  -21.8070 C   0  0  0  0  0  1  0  0  0  0  0  0
   24.2710   38.1420  -18.0820 C   0  0  0  0  0  1  0  0  0  0  0  0
   22.3000   37.9390  -18.6030 H   0  0  0  0  0  0  0  0  0  0  0  0
   12.8510   30.7130  -16.4180 C   0  0  0  0  0  2  0  0  0  0  0  0
   12.8140   32.0990  -17.0400 C   0  0  0  0  0  2  0  0  0  0  0  0
  1 19  1  0  0  0  0
  1 14  1  0  0  0  0
  1  2  1  0  0  0  0
  2  7  1  0  0  0  0
  3  2  2  0  0  0  0
  3  4  2  0  0  0  0
  4  5  2  0  0  0  0
  5  6  1  0  0  0  0
  7  8  1  0  0  0  0
  7  6  2  0  0  0  0
  9  8  2  0  0  0  0
 10  1  1  0  0  0  0
 11 10  1  0  0  0  0
 12  4  1  0  0  0  0
 12 13  1  0  0  0  0
 14 15  1  6  0  0  0
 15 16  2  0  0  0  0
 17 18  1  6  0  0  0
 17 16  1  0  0  0  0
 19 14  1  0  0  0  0
 19 40  1  1  0  0  0
 20 11  1  0  0  0  0
 21 17  1  0  0  0  0
 22 23  2  0  0  0  0
 22 21  1  0  0  0  0
 23 24  1  0  0  0  0
 25 21  2  0  0  0  0
 26 12  2  0  0  0  0
 27 28  1  0  0  0  0
 27 26  1  0  0  0  0
 29 30  1  0  0  0  0
 29 28  2  0  0  0  0
 31 26  1  0  0  0  0
 32 29  1  0  0  0  0
 33 32  1  0  0  0  0
 33 34  1  0  0  0  0
 34 35  1  0  0  0  0
 35 39  1  0  0  0  0
 35 38  1  0  0  0  0
 35 36  1  0  0  0  0
 37 32  1  0  0  0  0
 41 40  1  0  0  0  0
 41  9  1  0  0  0  0
M  END
>  <minimizedAffinity>
-8.34290791

$$$$

 OpenBabel07302502303D

 41 43  0  0  1  0  0  0  0  0999 V2000
   14.3380   32.3280  -17.9220 N   0  0  0  0  0  4  0  0  0  0  0  0
   15.3390   33.0100  -17.2320 C   0  0  0  0  0  0  0  0  0  0  0  0
   16.5770   33.2240  -17.8330 N   0  0  0  0  0  4  0  0  0  0  0  0
   17.5770   33.9040  -17.1430 C   0  0  0  0  0  0  0  0  0  0  0  0
   17.3390   34.3710  -15.8530 N   0  0  0  0  0  0  0  0  0  0  0  0
   16.1000   34.1580  -15.2520 C   0  0  0  0  0  3  0  0  0  0  0  0
   15.0920   33.4930  -15.8980 C   0  0  0  0  0  0  0  0  0  0  0  0
   13.8120   33.2720  -15.2770 C   0  0  0  0  0  3  0  0  0  0  0  0
   12.7780   32.5680  -15.9900 C   0  0  0  0  0  3  0  0  0  0  0  0
   14.5770   31.8610  -19.2130 C   0  0  0  0  0  2  0  0  0  0  0  0
   13.6640   31.2400  -19.8420 O   0  0  0  0  0  0  0  0  0  0  0  0
   18.8840   34.1300  -17.7770 N   0  0  0  0  0  4  0  0  0  0  0  0
   19.6170   34.6290  -17.2720 H   0  0  0  0  0  0  0  0  0  0  0  0
   13.0380   32.0580  -17.3990 C   0  0  1  0  0  3  0  0  0  0  0  0
   12.2760   32.5780  -18.5050 C   0  0  0  0  0  3  0  0  0  0  0  0
   11.2690   33.5820  -18.2770 C   0  0  0  0  0  3  0  0  0  0  0  0
   10.5090   34.1020  -19.3840 C   0  0  2  0  0  3  0  0  0  0  0  0
    9.5010   35.1050  -19.1570 C   0  0  0  0  0  1  0  0  0  0  0  0
   14.0450   31.0540  -17.6270 C   0  0  2  0  0  3  0  0  0  0  0  0
   12.5820   31.9810  -20.1550 Cl  0  0  0  0  0  0  0  0  0  0  0  0
   10.7690   33.5920  -20.7920 C   0  0  0  0  0  0  0  0  0  0  0  0
   11.7200   34.2660  -21.6380 C   0  0  0  0  0  3  0  0  0  0  0  0
   12.4020   35.3850  -21.1660 N   0  0  0  0  0  0  0  0  0  0  0  0
   12.1640   35.8520  -19.8750 C   0  0  0  0  0  1  0  0  0  0  0  0
    9.9290   32.2150  -21.3740 S   0  0  0  0  0  0  0  0  0  0  0  0
   19.1360   33.6370  -19.1390 C   0  0  0  0  0  0  0  0  0  0  0  0
   19.3640   34.5710  -20.2120 C   0  0  0  0  0  2  0  0  0  0  0  0
   19.3450   35.9870  -19.9500 C   0  0  0  0  0  3  0  0  0  0  0  0
   19.5730   36.9210  -21.0230 C   0  0  0  0  0  0  0  0  0  0  0  0
   19.5540   38.3370  -20.7620 C   0  0  0  0  0  1  0  0  0  0  0  0
   19.1540   32.2210  -19.4000 C   0  0  0  0  0  1  0  0  0  0  0  0
   19.8240   36.4270  -22.3850 N   0  0  0  0  0  0  0  0  0  0  0  0
   21.1510   35.9060  -22.7440 C   0  0  0  0  0  2  0  0  0  0  0  0
   22.1930   36.9950  -22.5520 C   0  0  0  0  0  2  0  0  0  0  0  0
   22.1990   37.4230  -21.1450 N   0  0  0  0  0  4  0  0  0  0  0  0
   22.5240   36.2770  -20.2850 C   0  0  0  0  0  1  0  0  0  0  0  0
   18.7490   36.4530  -23.3870 C   0  0  0  0  0  1  0  0  0  0  0  0
   23.2060   38.4780  -20.9580 C   0  0  0  0  0  1  0  0  0  0  0  0
   21.2780   37.7850  -20.8950 H   0  0  0  0  0  0  0  0  0  0  0  0
   13.0090   30.7230  -16.6510 C   0  0  0  0  0  2  0  0  0  0  0  0
   13.0320   32.1020  -17.2890 C   0  0  0  0  0  2  0  0  0  0  0  0
  1 19  1  0  0  0  0
  1 14  1  0  0  0  0
  1  2  1  0  0  0  0
  2  7  1  0  0  0  0
  3  2  2  0  0  0  0
  3  4  2  0  0  0  0
  4  5  2  0  0  0  0
  5  6  1  0  0  0  0
  7  8  1  0  0  0  0
  7  6  2  0  0  0  0
  9  8  2  0  0  0  0
 10  1  1  0  0  0  0
 11 10  1  0  0  0  0
 12 13  1  0  0  0  0
 12  4  1  0  0  0  0
 14 15  1  6  0  0  0
 15 16  2  0  0  0  0
 17 18  1  1  0  0  0
 17 16  1  0  0  0  0
 19 14  1  0  0  0  0
 19 40  1  1  0  0  0
 20 11  1  0  0  0  0
 21 17  1  0  0  0  0
 22 23  2  0  0  0  0
 22 21  1  0  0  0  0
 23 24  1  0  0  0  0
 25 21  2  0  0  0  0
 26 12  2  0  0  0  0
 27 28  1  0  0  0  0
 27 26  1  0  0  0  0
 29 30  1  0  0  0  0
 29 28  2  0  0  0  0
 31 26  1  0  0  0  0
 32 29  1  0  0  0  0
 33 34  1  0  0  0  0
 33 32  1  0  0  0  0
 34 35  1  0  0  0  0
 35 38  1  0  0  0  0
 35 39  1  0  0  0  0
 35 36  1  0  0  0  0
 37 32  1  0  0  0  0
 41 40  1  0  0  0  0
 41  9  1  0  0  0  0
M  END
>  <minimizedAffinity>
-8.2059803

$$$$

 OpenBabel07302502303D

 41 43  0  0  1  0  0  0  0  0999 V2000
   13.9730   33.0250  -17.0010 N   0  0  0  0  0  4  0  0  0  0  0  0
   14.8730   33.8470  -16.3270 C   0  0  0  0  0  0  0  0  0  0  0  0
   16.2050   33.9010  -16.7310 N   0  0  0  0  0  4  0  0  0  0  0  0
   17.1050   34.7220  -16.0570 C   0  0  0  0  0  0  0  0  0  0  0  0
   16.6740   35.4890  -14.9780 N   0  0  0  0  0  0  0  0  0  0  0  0
   15.3420   35.4360  -14.5730 C   0  0  0  0  0  3  0  0  0  0  0  0
   14.4270   34.6420  -15.2110 C   0  0  0  0  0  0  0  0  0  0  0  0
   13.0500   34.5860  -14.7930 C   0  0  0  0  0  3  0  0  0  0  0  0
   12.1190   33.7370  -15.4900 C   0  0  0  0  0  3  0  0  0  0  0  0
   14.4050   32.2580  -18.0800 C   0  0  0  0  0  2  0  0  0  0  0  0
   13.5830   31.5090  -18.6950 O   0  0  0  0  0  0  0  0  0  0  0  0
   18.5110   34.7780  -16.4840 N   0  0  0  0  0  4  0  0  0  0  0  0
   19.1700   35.3800  -15.9900 H   0  0  0  0  0  0  0  0  0  0  0  0
   12.5900   32.8980  -16.6670 C   0  0  1  0  0  3  0  0  0  0  0  0
   12.0660   33.1500  -17.9850 C   0  0  0  0  0  3  0  0  0  0  0  0
   11.0970   34.1960  -18.1880 C   0  0  0  0  0  3  0  0  0  0  0  0
   10.5740   34.4460  -19.5060 C   0  0  1  0  0  3  0  0  0  0  0  0
    9.6050   35.4920  -19.7090 C   0  0  0  0  0  1  0  0  0  0  0  0
   13.5600   31.8530  -16.4650 C   0  0  2  0  0  3  0  0  0  0  0  0
   12.6190   32.1680  -19.3650 Cl  0  0  0  0  0  0  0  0  0  0  0  0
   11.0450   33.6090  -20.6840 C   0  0  0  0  0  0  0  0  0  0  0  0
   12.1610   34.0500  -21.4810 C   0  0  0  0  0  3  0  0  0  0  0  0
   12.8080   35.2440  -21.1730 N   0  0  0  0  0  0  0  0  0  0  0  0
   12.3770   36.0120  -20.0940 C   0  0  0  0  0  1  0  0  0  0  0  0
   10.2480   32.1380  -21.0620 S   0  0  0  0  0  0  0  0  0  0  0  0
   18.9660   33.9680  -17.6230 C   0  0  0  0  0  0  0  0  0  0  0  0
   20.1240   34.3730  -18.3770 C   0  0  0  0  0  3  0  0  0  0  0  0
   20.8360   35.5720  -18.0160 C   0  0  0  0  0  3  0  0  0  0  0  0
   21.9930   35.9780  -18.7710 C   0  0  1  0  0  3  0  0  0  0  0  0
   22.7050   37.1770  -18.4100 C   0  0  0  0  0  1  0  0  0  0  0  0
   18.2550   32.7690  -17.9840 C   0  0  0  0  0  1  0  0  0  0  0  0
   22.4480   35.1670  -19.9100 N   0  0  0  0  0  0  0  0  0  0  0  0
   22.3100   35.6830  -21.2800 C   0  0  0  0  0  2  0  0  0  0  0  0
   20.8430   35.9430  -21.5780 C   0  0  0  0  0  2  0  0  0  0  0  0
   20.3180   36.9340  -20.6270 N   0  0  0  0  0  4  0  0  0  0  0  0
   21.0750   38.1870  -20.7570 C   0  0  0  0  0  1  0  0  0  0  0  0
   23.0420   33.8430  -19.6800 C   0  0  0  0  0  1  0  0  0  0  0  0
   18.8990   37.1850  -20.9140 C   0  0  0  0  0  1  0  0  0  0  0  0
   20.4140   36.5770  -19.6760 H   0  0  0  0  0  0  0  0  0  0  0  0
   12.3930   31.8580  -15.5510 C   0  0  0  0  0  2  0  0  0  0  0  0
   12.5680   32.9690  -16.5740 C   0  0  0  0  0  2  0  0  0  0  0  0
  1 14  1  0  0  0  0
  1 19  1  0  0  0  0
  1  2  1  0  0  0  0
  2  7  1  0  0  0  0
  3  2  2  0  0  0  0
  3  4  2  0  0  0  0
  4  5  2  0  0  0  0
  5  6  1  0  0  0  0
  7  8  1  0  0  0  0
  7  6  2  0  0  0  0
  9  8  2  0  0  0  0
 10  1  1  0  0  0  0
 11 10  1  0  0  0  0
 12  4  1  0  0  0  0
 12 13  1  0  0  0  0
 14 15  1  6  0  0  0
 14 19  1  0  0  0  0
 16 15  2  0  0  0  0
 17 18  1  6  0  0  0
 17 16  1  0  0  0  0
 19 40  1  1  0  0  0
 20 11  1  0  0  0  0
 21 17  1  0  0  0  0
 22 23  2  0  0  0  0
 22 21  1  0  0  0  0
 23 24  1  0  0  0  0
 25 21  2  0  0  0  0
 26 12  2  0  0  0  0
 27 28  2  0  0  0  0
 27 26  1  0  0  0  0
 29 30  1  1  0  0  0
 29 28  1  0  0  0  0
 31 26  1  0  0  0  0
 32 37  1  0  0  0  0
 32 29  1  0  0  0  0
 33 32  1  0  0  0  0
 34 33  1  0  0  0  0
 34 35  1  0  0  0  0
 35 39  1  0  0  0  0
 36 35  1  0  0  0  0
 38 35  1  0  0  0  0
 41 40  1  0  0  0  0
 41  9  1  0  0  0  0
M  END
>  <minimizedAffinity>
-8.15114403

$$$$
