
 OpenBabel07312502283D

 41 42  0  0  1  0  0  0  0  0999 V2000
   16.8780   33.4780  -17.0480 N   0  0  0  0  0  4  0  0  0  0  0  0
   15.5590   33.8690  -16.8280 C   0  0  0  0  0  0  0  0  0  0  0  0
   14.5290   33.2880  -17.5650 N   0  0  0  0  0  4  0  0  0  0  0  0
   13.2100   33.6780  -17.3450 C   0  0  0  0  0  0  0  0  0  0  0  0
   12.9200   34.6490  -16.3890 N   0  0  0  0  0  0  0  0  0  0  0  0
   13.9510   35.2290  -15.6520 C   0  0  0  0  0  3  0  0  0  0  0  0
   15.2600   34.8720  -15.8390 C   0  0  0  0  0  0  0  0  0  0  0  0
   16.3240   35.4720  -15.0780 C   0  0  0  0  0  3  0  0  0  0  0  0
   17.6880   35.0680  -15.3040 C   0  0  0  0  0  3  0  0  0  0  0  0
   17.1670   32.5080  -18.0040 C   0  0  0  0  0  2  0  0  0  0  0  0
   18.3700   32.1510  -18.2040 O   0  0  0  0  0  0  0  0  0  0  0  0
   12.1240   33.0660  -18.1230 N   0  0  0  0  0  4  0  0  0  0  0  0
   11.1570   33.3510  -17.9620 H   0  0  0  0  0  0  0  0  0  0  0  0
   18.0040   34.0100  -16.3480 C   0  0  2  0  0  3  0  0  0  0  0  0
   18.8970   34.3150  -17.4360 C   0  0  0  0  0  3  0  0  0  0  0  0
   19.4890   35.6230  -17.5360 C   0  0  0  0  0  3  0  0  0  0  0  0
   20.3810   35.9280  -18.6250 C   0  0  1  0  0  3  0  0  0  0  0  0
   20.9740   37.2380  -18.7240 C   0  0  0  0  0  1  0  0  0  0  0  0
   17.4110   32.7010  -16.2480 C   0  0  0  0  0  2  0  0  0  0  0  0
   19.2670   33.0740  -18.6580 Cl  0  0  0  0  0  0  0  0  0  0  0  0
   20.6980   34.8690  -19.6680 C   0  0  0  0  0  0  0  0  0  0  0  0
   21.8510   34.0210  -19.5060 C   0  0  0  0  0  3  0  0  0  0  0  0
   22.6750   34.1700  -18.3940 N   0  0  0  0  0  0  0  0  0  0  0  0
   22.3840   35.1410  -17.4370 C   0  0  0  0  0  1  0  0  0  0  0  0
   19.6830   34.6850  -21.0390 S   0  0  0  0  0  0  0  0  0  0  0  0
   12.4280   32.0420  -19.1320 C   0  0  0  0  0  0  0  0  0  0  0  0
   12.6570   32.4260  -20.5010 C   0  0  0  0  0  2  0  0  0  0  0  0
   12.5860   33.8140  -20.8810 C   0  0  0  0  0  3  0  0  0  0  0  0
   12.8140   34.1980  -22.2500 C   0  0  0  0  0  0  0  0  0  0  0  0
   12.7420   35.5860  -22.6290 C   0  0  0  0  0  1  0  0  0  0  0  0
   12.5000   30.6550  -18.7530 C   0  0  0  0  0  1  0  0  0  0  0  0
   13.1180   33.1750  -23.2600 N   0  0  0  0  0  0  0  0  0  0  0  0
   14.4650   32.5890  -23.3290 C   0  0  0  0  0  2  0  0  0  0  0  0
   15.4810   33.6860  -23.6010 C   0  0  0  0  0  2  0  0  0  0  0  0
   15.4330   34.6770  -22.5160 N   0  0  0  0  0  4  0  0  0  0  0  0
   15.7500   34.0220  -21.2380 C   0  0  0  0  0  1  0  0  0  0  0  0
   12.0770   32.7370  -24.2000 C   0  0  0  0  0  1  0  0  0  0  0  0
   16.4160   35.7390  -22.7780 C   0  0  0  0  0  1  0  0  0  0  0  0
   14.4990   35.0840  -22.4680 H   0  0  0  0  0  0  0  0  0  0  0  0
   18.2020   33.2800  -15.0060 C   0  0  0  0  0  1  0  0  0  0  0  0
   17.9650   34.0910  -16.2700 C   0  0  0  0  0  2  0  0  0  0  0  0
  1  2  1  0  0  0  0
  1 14  1  0  0  0  0
  1 19  1  0  0  0  0
  2  7  1  0  0  0  0
  3  4  2  0  0  0  0
  3  2  2  0  0  0  0
  4  5  2  0  0  0  0
  5  6  1  0  0  0  0
  7  6  2  0  0  0  0
  7  8  1  0  0  0  0
  9  8  2  0  0  0  0
 10  1  1  0  0  0  0
 11 10  1  0  0  0  0
 12 13  1  0  0  0  0
 12  4  1  0  0  0  0
 14 15  1  6  0  0  0
 14 19  1  0  0  0  0
 16 15  2  0  0  0  0
 17 18  1  1  0  0  0
 17 16  1  0  0  0  0
 20 11  1  0  0  0  0
 21 22  1  0  0  0  0
 21 17  1  0  0  0  0
 22 23  2  0  0  0  0
 23 24  1  0  0  0  0
 25 21  2  0  0  0  0
 26 31  1  0  0  0  0
 26 12  2  0  0  0  0
 27 26  1  0  0  0  0
 28 27  1  0  0  0  0
 29 28  2  0  0  0  0
 30 29  1  0  0  0  0
 32 29  1  0  0  0  0
 33 32  1  0  0  0  0
 34 33  1  0  0  0  0
 34 35  1  0  0  0  0
 35 39  1  0  0  0  0
 35 36  1  0  0  0  0
 37 32  1  0  0  0  0
 38 35  1  0  0  0  0
 41  9  1  0  0  0  0
 41 40  1  0  0  0  0
M  END
>  <minimizedAffinity>
-8.81604767

$$$$
