
 OpenBabel07302502303D

 41 43  0  0  1  0  0  0  0  0999 V2000
   14.3380   32.3280  -17.9220 N   0  0  0  0  0  4  0  0  0  0  0  0
   15.3390   33.0100  -17.2320 C   0  0  0  0  0  0  0  0  0  0  0  0
   16.5770   33.2240  -17.8330 N   0  0  0  0  0  4  0  0  0  0  0  0
   17.5770   33.9040  -17.1430 C   0  0  0  0  0  0  0  0  0  0  0  0
   17.3390   34.3710  -15.8530 N   0  0  0  0  0  0  0  0  0  0  0  0
   16.1000   34.1580  -15.2520 C   0  0  0  0  0  3  0  0  0  0  0  0
   15.0920   33.4930  -15.8980 C   0  0  0  0  0  0  0  0  0  0  0  0
   13.8120   33.2720  -15.2770 C   0  0  0  0  0  3  0  0  0  0  0  0
   12.7780   32.5680  -15.9900 C   0  0  0  0  0  3  0  0  0  0  0  0
   14.5770   31.8610  -19.2130 C   0  0  0  0  0  2  0  0  0  0  0  0
   13.6640   31.2400  -19.8420 O   0  0  0  0  0  0  0  0  0  0  0  0
   18.8840   34.1300  -17.7770 N   0  0  0  0  0  4  0  0  0  0  0  0
   19.6170   34.6290  -17.2720 H   0  0  0  0  0  0  0  0  0  0  0  0
   13.0380   32.0580  -17.3990 C   0  0  1  0  0  3  0  0  0  0  0  0
   12.2760   32.5780  -18.5050 C   0  0  0  0  0  3  0  0  0  0  0  0
   11.2690   33.5820  -18.2770 C   0  0  0  0  0  3  0  0  0  0  0  0
   10.5090   34.1020  -19.3840 C   0  0  2  0  0  3  0  0  0  0  0  0
    9.5010   35.1050  -19.1570 C   0  0  0  0  0  1  0  0  0  0  0  0
   14.0450   31.0540  -17.6270 C   0  0  2  0  0  3  0  0  0  0  0  0
   12.5820   31.9810  -20.1550 Cl  0  0  0  0  0  0  0  0  0  0  0  0
   10.7690   33.5920  -20.7920 C   0  0  0  0  0  0  0  0  0  0  0  0
   11.7200   34.2660  -21.6380 C   0  0  0  0  0  3  0  0  0  0  0  0
   12.4020   35.3850  -21.1660 N   0  0  0  0  0  0  0  0  0  0  0  0
   12.1640   35.8520  -19.8750 C   0  0  0  0  0  1  0  0  0  0  0  0
    9.9290   32.2150  -21.3740 S   0  0  0  0  0  0  0  0  0  0  0  0
   19.1360   33.6370  -19.1390 C   0  0  0  0  0  0  0  0  0  0  0  0
   19.3640   34.5710  -20.2120 C   0  0  0  0  0  2  0  0  0  0  0  0
   19.3450   35.9870  -19.9500 C   0  0  0  0  0  3  0  0  0  0  0  0
   19.5730   36.9210  -21.0230 C   0  0  0  0  0  0  0  0  0  0  0  0
   19.5540   38.3370  -20.7620 C   0  0  0  0  0  1  0  0  0  0  0  0
   19.1540   32.2210  -19.4000 C   0  0  0  0  0  1  0  0  0  0  0  0
   19.8240   36.4270  -22.3850 N   0  0  0  0  0  0  0  0  0  0  0  0
   21.1510   35.9060  -22.7440 C   0  0  0  0  0  2  0  0  0  0  0  0
   22.1930   36.9950  -22.5520 C   0  0  0  0  0  2  0  0  0  0  0  0
   22.1990   37.4230  -21.1450 N   0  0  0  0  0  4  0  0  0  0  0  0
   22.5240   36.2770  -20.2850 C   0  0  0  0  0  1  0  0  0  0  0  0
   18.7490   36.4530  -23.3870 C   0  0  0  0  0  1  0  0  0  0  0  0
   23.2060   38.4780  -20.9580 C   0  0  0  0  0  1  0  0  0  0  0  0
   21.2780   37.7850  -20.8950 H   0  0  0  0  0  0  0  0  0  0  0  0
   13.0090   30.7230  -16.6510 C   0  0  0  0  0  2  0  0  0  0  0  0
   13.0320   32.1020  -17.2890 C   0  0  0  0  0  2  0  0  0  0  0  0
  1 19  1  0  0  0  0
  1 14  1  0  0  0  0
  1  2  1  0  0  0  0
  2  7  1  0  0  0  0
  3  2  2  0  0  0  0
  3  4  2  0  0  0  0
  4  5  2  0  0  0  0
  5  6  1  0  0  0  0
  7  8  1  0  0  0  0
  7  6  2  0  0  0  0
  9  8  2  0  0  0  0
 10  1  1  0  0  0  0
 11 10  1  0  0  0  0
 12 13  1  0  0  0  0
 12  4  1  0  0  0  0
 14 15  1  6  0  0  0
 15 16  2  0  0  0  0
 17 18  1  1  0  0  0
 17 16  1  0  0  0  0
 19 14  1  0  0  0  0
 19 40  1  1  0  0  0
 20 11  1  0  0  0  0
 21 17  1  0  0  0  0
 22 23  2  0  0  0  0
 22 21  1  0  0  0  0
 23 24  1  0  0  0  0
 25 21  2  0  0  0  0
 26 12  2  0  0  0  0
 27 28  1  0  0  0  0
 27 26  1  0  0  0  0
 29 30  1  0  0  0  0
 29 28  2  0  0  0  0
 31 26  1  0  0  0  0
 32 29  1  0  0  0  0
 33 34  1  0  0  0  0
 33 32  1  0  0  0  0
 34 35  1  0  0  0  0
 35 38  1  0  0  0  0
 35 39  1  0  0  0  0
 35 36  1  0  0  0  0
 37 32  1  0  0  0  0
 41 40  1  0  0  0  0
 41  9  1  0  0  0  0
M  END
>  <minimizedAffinity>
-8.2059803

$$$$
