
 OpenBabel07312502283D

 41 43  0  0  1  0  0  0  0  0999 V2000
   14.1040   32.7830  -17.1250 N   0  0  0  0  0  4  0  0  0  0  0  0
   14.9590   33.5450  -16.3310 C   0  0  0  0  0  0  0  0  0  0  0  0
   16.2480   33.8340  -16.7760 N   0  0  0  0  0  4  0  0  0  0  0  0
   17.1030   34.5940  -15.9830 C   0  0  0  0  0  0  0  0  0  0  0  0
   16.6720   35.0660  -14.7450 N   0  0  0  0  0  0  0  0  0  0  0  0
   15.3830   34.7760  -14.3010 C   0  0  0  0  0  3  0  0  0  0  0  0
   14.5120   34.0320  -15.0510 C   0  0  0  0  0  0  0  0  0  0  0  0
   13.1810   33.7320  -14.5920 C   0  0  0  0  0  3  0  0  0  0  0  0
   12.2960   32.9460  -15.4120 C   0  0  0  0  0  3  0  0  0  0  0  0
   14.5350   32.3120  -18.3620 C   0  0  0  0  0  2  0  0  0  0  0  0
   13.7550   31.6190  -19.0860 O   0  0  0  0  0  0  0  0  0  0  0  0
   18.4620   34.9000  -16.4520 N   0  0  0  0  0  4  0  0  0  0  0  0
   19.0890   35.4570  -15.8710 H   0  0  0  0  0  0  0  0  0  0  0  0
   12.7680   32.4310  -16.7620 C   0  0  1  0  0  3  0  0  0  0  0  0
   12.1340   32.8930  -17.9710 C   0  0  0  0  0  3  0  0  0  0  0  0
   11.0530   33.8410  -17.9000 C   0  0  0  0  0  3  0  0  0  0  0  0
   10.4190   34.3020  -19.1080 C   0  0  1  0  0  3  0  0  0  0  0  0
    9.3370   35.2510  -19.0370 C   0  0  0  0  0  1  0  0  0  0  0  0
   13.8490   31.4820  -16.8340 C   0  0  2  0  0  3  0  0  0  0  0  0
   12.6870   32.2900  -19.5520 Cl  0  0  0  0  0  0  0  0  0  0  0  0
   10.8910   33.7880  -20.4580 C   0  0  0  0  0  0  0  0  0  0  0  0
   10.2600   32.6370  -21.0510 C   0  0  0  0  0  3  0  0  0  0  0  0
    9.2180   31.9950  -20.3880 N   0  0  0  0  0  0  0  0  0  0  0  0
    8.7850   32.4660  -19.1510 C   0  0  0  0  0  1  0  0  0  0  0  0
   12.1760   34.5780  -21.2750 S   0  0  0  0  0  0  0  0  0  0  0  0
   18.9190   34.4030  -17.7580 C   0  0  0  0  0  0  0  0  0  0  0  0
   19.6200   35.2820  -18.6570 C   0  0  0  0  0  3  0  0  0  0  0  0
   19.8730   36.6480  -18.2780 C   0  0  0  0  0  3  0  0  0  0  0  0
   20.5730   37.5270  -19.1780 C   0  0  1  0  0  3  0  0  0  0  0  0
   20.8260   38.8940  -18.7990 C   0  0  0  0  0  1  0  0  0  0  0  0
   18.6670   33.0370  -18.1360 C   0  0  0  0  0  1  0  0  0  0  0  0
   21.0300   37.0300  -20.4840 N   0  0  0  0  0  0  0  0  0  0  0  0
   22.2390   36.1990  -20.5710 C   0  0  0  0  0  2  0  0  0  0  0  0
   23.4300   36.9790  -20.0380 C   0  0  0  0  0  2  0  0  0  0  0  0
   23.1880   37.3450  -18.6360 N   0  0  0  0  0  4  0  0  0  0  0  0
   23.0040   36.1250  -17.8350 C   0  0  0  0  0  1  0  0  0  0  0  0
   20.2780   37.3640  -21.7010 C   0  0  0  0  0  1  0  0  0  0  0  0
   24.3390   38.1000  -18.1200 C   0  0  0  0  0  1  0  0  0  0  0  0
   22.3490   37.9220  -18.5750 H   0  0  0  0  0  0  0  0  0  0  0  0
   12.7340   31.1120  -15.9870 C   0  0  0  0  0  2  0  0  0  0  0  0
   12.7440   32.4780  -16.6550 C   0  0  0  0  0  2  0  0  0  0  0  0
  1 19  1  0  0  0  0
  1 14  1  0  0  0  0
  1  2  1  0  0  0  0
  2  7  1  0  0  0  0
  3  2  2  0  0  0  0
  3  4  2  0  0  0  0
  4  5  2  0  0  0  0
  5  6  1  0  0  0  0
  7  8  1  0  0  0  0
  7  6  2  0  0  0  0
  9  8  2  0  0  0  0
 10  1  1  0  0  0  0
 11 10  1  0  0  0  0
 12  4  1  0  0  0  0
 12 13  1  0  0  0  0
 14 15  1  6  0  0  0
 15 16  2  0  0  0  0
 17 18  1  6  0  0  0
 17 16  1  0  0  0  0
 19 14  1  0  0  0  0
 19 40  1  1  0  0  0
 20 11  1  0  0  0  0
 21 17  1  0  0  0  0
 22 21  1  0  0  0  0
 22 23  2  0  0  0  0
 23 24  1  0  0  0  0
 25 21  2  0  0  0  0
 26 12  2  0  0  0  0
 27 28  2  0  0  0  0
 27 26  1  0  0  0  0
 29 30  1  1  0  0  0
 29 28  1  0  0  0  0
 31 26  1  0  0  0  0
 32 29  1  0  0  0  0
 33 32  1  0  0  0  0
 33 34  1  0  0  0  0
 34 35  1  0  0  0  0
 35 39  1  0  0  0  0
 35 38  1  0  0  0  0
 35 36  1  0  0  0  0
 37 32  1  0  0  0  0
 41 40  1  0  0  0  0
 41  9  1  0  0  0  0
M  END
>  <minimizedAffinity>
-8.29987621

$$$$
