
 OpenBabel07312502283D

 41 42  0  0  1  0  0  0  0  0999 V2000
   17.7460   32.8310  -20.3960 N   0  0  0  0  0  4  0  0  0  0  0  0
   16.4040   33.1960  -20.4810 C   0  0  0  0  0  0  0  0  0  0  0  0
   15.5410   32.9240  -19.4220 N   0  0  0  0  0  4  0  0  0  0  0  0
   14.2000   33.2890  -19.5080 C   0  0  0  0  0  0  0  0  0  0  0  0
   13.7210   33.9250  -20.6500 N   0  0  0  0  0  0  0  0  0  0  0  0
   14.5860   34.1970  -21.7090 C   0  0  0  0  0  3  0  0  0  0  0  0
   15.9100   33.8540  -21.6630 C   0  0  0  0  0  0  0  0  0  0  0  0
   16.8030   34.1340  -22.7570 C   0  0  0  0  0  3  0  0  0  0  0  0
   18.1910   33.7580  -22.6690 C   0  0  0  0  0  3  0  0  0  0  0  0
   18.2240   32.1940  -19.2530 C   0  0  0  0  0  2  0  0  0  0  0  0
   19.4480   31.8620  -19.1750 O   0  0  0  0  0  0  0  0  0  0  0  0
   13.2880   33.0030  -18.3910 N   0  0  0  0  0  4  0  0  0  0  0  0
   12.3050   33.2700  -18.4520 H   0  0  0  0  0  0  0  0  0  0  0  0
   18.7120   33.0630  -21.4220 C   0  0  1  0  0  3  0  0  0  0  0  0
   19.7330   33.6890  -20.6220 C   0  0  0  0  0  3  0  0  0  0  0  0
   20.2600   34.9730  -21.0040 C   0  0  0  0  0  3  0  0  0  0  0  0
   21.2820   35.5990  -20.2040 C   0  0  1  0  0  3  0  0  0  0  0  0
   21.8090   36.8840  -20.5860 C   0  0  0  0  0  1  0  0  0  0  0  0
   18.1850   31.7780  -21.0400 C   0  0  0  0  0  2  0  0  0  0  0  0
   20.3430   32.8750  -19.1610 Cl  0  0  0  0  0  0  0  0  0  0  0  0
   21.8020   34.9040  -18.9560 C   0  0  0  0  0  0  0  0  0  0  0  0
   21.2100   35.1860  -17.6740 C   0  0  0  0  0  3  0  0  0  0  0  0
   20.1590   36.0950  -17.5770 N   0  0  0  0  0  0  0  0  0  0  0  0
   19.6820   36.7320  -18.7210 C   0  0  0  0  0  1  0  0  0  0  0  0
   23.0960   33.7840  -19.0750 S   0  0  0  0  0  0  0  0  0  0  0  0
   13.7920   32.3300  -17.1840 C   0  0  0  0  0  0  0  0  0  0  0  0
   14.1730   33.1080  -16.0330 C   0  0  0  0  0  2  0  0  0  0  0  0
   14.0630   34.5440  -16.0660 C   0  0  0  0  0  3  0  0  0  0  0  0
   14.4460   35.3210  -14.9150 C   0  0  0  0  0  0  0  0  0  0  0  0
   14.3350   36.7570  -14.9470 C   0  0  0  0  0  1  0  0  0  0  0  0
   13.9010   30.8950  -17.1520 C   0  0  0  0  0  1  0  0  0  0  0  0
   14.9490   34.6490  -13.7090 N   0  0  0  0  0  0  0  0  0  0  0  0
   14.0140   33.9620  -12.8060 C   0  0  0  0  0  2  0  0  0  0  0  0
   12.9980   34.9590  -12.2740 C   0  0  0  0  0  2  0  0  0  0  0  0
   12.2530   35.5450  -13.3970 N   0  0  0  0  0  4  0  0  0  0  0  0
   11.5550   34.4800  -14.1330 C   0  0  0  0  0  1  0  0  0  0  0  0
   16.3870   34.6650  -13.4050 C   0  0  0  0  0  1  0  0  0  0  0  0
   11.2700   36.5100  -12.8830 C   0  0  0  0  0  1  0  0  0  0  0  0
   12.9010   36.0230  -14.0230 H   0  0  0  0  0  0  0  0  0  0  0  0
   18.7300   31.9080  -22.4310 C   0  0  0  0  0  1  0  0  0  0  0  0
   18.6580   33.1180  -21.5130 C   0  0  0  0  0  2  0  0  0  0  0  0
  1 10  1  0  0  0  0
  2  1  1  0  0  0  0
  2  3  2  0  0  0  0
  4  3  2  0  0  0  0
  4 12  1  0  0  0  0
  5  4  2  0  0  0  0
  6  7  2  0  0  0  0
  6  5  1  0  0  0  0
  7  2  1  0  0  0  0
  8  9  2  0  0  0  0
  8  7  1  0  0  0  0
  9 41  1  0  0  0  0
 10 11  1  0  0  0  0
 11 20  1  0  0  0  0
 12 26  2  0  0  0  0
 13 12  1  0  0  0  0
 14 19  1  0  0  0  0
 14 15  1  1  0  0  0
 14  1  1  0  0  0  0
 16 15  2  0  0  0  0
 16 17  1  0  0  0  0
 17 18  1  1  0  0  0
 17 21  1  0  0  0  0
 19  1  1  0  0  0  0
 21 22  1  0  0  0  0
 22 23  2  0  0  0  0
 24 23  1  0  0  0  0
 25 21  2  0  0  0  0
 26 31  1  0  0  0  0
 26 27  1  0  0  0  0
 28 27  1  0  0  0  0
 28 29  2  0  0  0  0
 29 32  1  0  0  0  0
 30 29  1  0  0  0  0
 32 37  1  0  0  0  0
 32 33  1  0  0  0  0
 33 34  1  0  0  0  0
 35 38  1  0  0  0  0
 35 34  1  0  0  0  0
 36 35  1  0  0  0  0
 39 35  1  0  0  0  0
 40 41  1  0  0  0  0
M  END
>  <minimizedAffinity>
-8.48584938

$$$$
