
 OpenBabel07302502303D

 41 43  0  0  1  0  0  0  0  0999 V2000
   13.3340   33.4510  -17.7040 N   0  0  0  0  0  4  0  0  0  0  0  0
   13.7410   34.0900  -18.8730 C   0  0  0  0  0  0  0  0  0  0  0  0
   15.0550   33.9560  -19.3180 N   0  0  0  0  0  4  0  0  0  0  0  0
   15.4620   34.5950  -20.4860 C   0  0  0  0  0  0  0  0  0  0  0  0
   14.5570   35.3670  -21.2100 N   0  0  0  0  0  0  0  0  0  0  0  0
   13.2430   35.5010  -20.7650 C   0  0  0  0  0  3  0  0  0  0  0  0
   12.8050   34.8880  -19.6220 C   0  0  0  0  0  0  0  0  0  0  0  0
   11.4470   35.0260  -19.1610 C   0  0  0  0  0  3  0  0  0  0  0  0
   11.0260   34.3660  -17.9530 C   0  0  0  0  0  3  0  0  0  0  0  0
   14.2400   32.6790  -16.9810 C   0  0  0  0  0  2  0  0  0  0  0  0
   13.8680   32.0960  -15.9150 O   0  0  0  0  0  0  0  0  0  0  0  0
   16.8480   34.4540  -20.9570 N   0  0  0  0  0  4  0  0  0  0  0  0
   17.1460   34.9220  -21.8130 H   0  0  0  0  0  0  0  0  0  0  0  0
   12.0150   33.5230  -17.1630 C   0  0  2  0  0  3  0  0  0  0  0  0
   12.4010   33.9230  -15.8340 C   0  0  0  0  0  3  0  0  0  0  0  0
   11.8510   35.1210  -15.2540 C   0  0  0  0  0  3  0  0  0  0  0  0
   12.2380   35.5200  -13.9250 C   0  0  2  0  0  3  0  0  0  0  0  0
   11.6880   36.7180  -13.3450 C   0  0  0  0  0  1  0  0  0  0  0  0
   12.5640   32.3250  -17.7430 C   0  0  1  0  0  3  0  0  0  0  0  0
   13.5590   32.9360  -14.9090 Cl  0  0  0  0  0  0  0  0  0  0  0  0
   13.2260   34.6780  -13.1350 C   0  0  0  0  0  0  0  0  0  0  0  0
   12.7470   33.7090  -12.1830 C   0  0  0  0  0  3  0  0  0  0  0  0
   11.3780   33.5440  -11.9860 N   0  0  0  0  0  0  0  0  0  0  0  0
   10.4720   34.3160  -12.7110 C   0  0  0  0  0  1  0  0  0  0  0  0
   14.9120   34.8810  -13.3780 S   0  0  0  0  0  0  0  0  0  0  0  0
   17.8040   33.6390  -20.1930 C   0  0  0  0  0  0  0  0  0  0  0  0
   18.8050   34.2780  -19.3780 C   0  0  0  0  0  2  0  0  0  0  0  0
   18.8690   35.7160  -19.3120 C   0  0  0  0  0  3  0  0  0  0  0  0
   19.8700   36.3550  -18.4970 C   0  0  0  0  0  0  0  0  0  0  0  0
   19.9350   37.7920  -18.4300 C   0  0  0  0  0  1  0  0  0  0  0  0
   17.7390   32.2020  -20.2600 C   0  0  0  0  0  1  0  0  0  0  0  0
   20.8260   35.5390  -17.7340 N   0  0  0  0  0  0  0  0  0  0  0  0
   22.2350   35.4800  -18.1480 C   0  0  0  0  0  2  0  0  0  0  0  0
   22.3260   34.9250  -19.5600 C   0  0  0  0  0  2  0  0  0  0  0  0
   21.5820   35.8010  -20.4780 N   0  0  0  0  0  4  0  0  0  0  0  0
   22.1600   37.1510  -20.4440 C   0  0  0  0  0  1  0  0  0  0  0  0
   20.3740   34.7850  -16.5560 C   0  0  0  0  0  1  0  0  0  0  0  0
   21.6690   35.2640  -21.8440 C   0  0  0  0  0  1  0  0  0  0  0  0
   20.6040   35.8420  -20.1910 H   0  0  0  0  0  0  0  0  0  0  0  0
   11.0880   32.5100  -17.8640 C   0  0  0  0  0  2  0  0  0  0  0  0
   11.9490   33.5920  -17.2340 C   0  0  0  0  0  2  0  0  0  0  0  0
  1 14  1  0  0  0  0
  1 10  1  0  0  0  0
  2  1  1  0  0  0  0
  3  2  2  0  0  0  0
  4  3  2  0  0  0  0
  5  6  1  0  0  0  0
  5  4  2  0  0  0  0
  6  7  2  0  0  0  0
  7  8  1  0  0  0  0
  7  2  1  0  0  0  0
  8  9  2  0  0  0  0
  9 41  1  0  0  0  0
 10 11  1  0  0  0  0
 11 20  1  0  0  0  0
 12  4  1  0  0  0  0
 12 26  2  0  0  0  0
 13 12  1  0  0  0  0
 14 15  1  1  0  0  0
 15 16  2  0  0  0  0
 16 17  1  0  0  0  0
 17 18  1  6  0  0  0
 17 21  1  0  0  0  0
 19 40  1  6  0  0  0
 19  1  1  0  0  0  0
 19 14  1  0  0  0  0
 21 22  1  0  0  0  0
 22 23  2  0  0  0  0
 24 23  1  0  0  0  0
 25 21  2  0  0  0  0
 26 27  1  0  0  0  0
 27 28  1  0  0  0  0
 28 29  2  0  0  0  0
 29 30  1  0  0  0  0
 29 32  1  0  0  0  0
 31 26  1  0  0  0  0
 32 37  1  0  0  0  0
 33 32  1  0  0  0  0
 34 33  1  0  0  0  0
 35 36  1  0  0  0  0
 35 39  1  0  0  0  0
 35 34  1  0  0  0  0
 38 35  1  0  0  0  0
 40 41  1  0  0  0  0
M  END
>  <minimizedAffinity>
-9.10784435

$$$$
