
 OpenBabel07302502303D

 41 43  0  0  1  0  0  0  0  0999 V2000
   14.1660   32.4770  -17.4750 N   0  0  0  0  0  4  0  0  0  0  0  0
   14.9660   33.2690  -16.6540 C   0  0  0  0  0  0  0  0  0  0  0  0
   16.2470   33.6270  -17.0670 N   0  0  0  0  0  4  0  0  0  0  0  0
   17.0470   34.4180  -16.2460 C   0  0  0  0  0  0  0  0  0  0  0  0
   16.5670   34.8510  -15.0130 N   0  0  0  0  0  0  0  0  0  0  0  0
   15.2850   34.4920  -14.6000 C   0  0  0  0  0  3  0  0  0  0  0  0
   14.4690   33.7170  -15.3790 C   0  0  0  0  0  0  0  0  0  0  0  0
   13.1440   33.3460  -14.9520 C   0  0  0  0  0  3  0  0  0  0  0  0
   12.3170   32.5280  -15.8000 C   0  0  0  0  0  3  0  0  0  0  0  0
   14.6470   32.0450  -18.7090 C   0  0  0  0  0  2  0  0  0  0  0  0
   13.9170   31.3230  -19.4570 O   0  0  0  0  0  0  0  0  0  0  0  0
   18.4000   34.7970  -16.6820 N   0  0  0  0  0  4  0  0  0  0  0  0
   18.9850   35.3760  -16.0800 H   0  0  0  0  0  0  0  0  0  0  0  0
   12.8420   32.0550  -17.1470 C   0  0  1  0  0  3  0  0  0  0  0  0
   12.2800   32.5830  -18.3640 C   0  0  0  0  0  3  0  0  0  0  0  0
   11.2220   33.5580  -18.3050 C   0  0  0  0  0  3  0  0  0  0  0  0
   10.6620   34.0850  -19.5230 C   0  0  2  0  0  3  0  0  0  0  0  0
    9.6030   35.0600  -19.4650 C   0  0  0  0  0  1  0  0  0  0  0  0
   13.9000   31.0800  -17.2050 C   0  0  2  0  0  3  0  0  0  0  0  0
   12.8960   32.0300  -19.9400 Cl  0  0  0  0  0  0  0  0  0  0  0  0
   11.1870   33.6130  -20.8690 C   0  0  0  0  0  0  0  0  0  0  0  0
   12.2630   34.3230  -21.5110 C   0  0  0  0  0  3  0  0  0  0  0  0
   12.8230   35.4410  -20.8990 N   0  0  0  0  0  0  0  0  0  0  0  0
   12.3430   35.8730  -19.6650 C   0  0  0  0  0  1  0  0  0  0  0  0
   10.4960   32.2360  -21.6230 S   0  0  0  0  0  0  0  0  0  0  0  0
   18.9070   34.3400  -17.9830 C   0  0  0  0  0  0  0  0  0  0  0  0
   19.6210   35.2530  -18.8380 C   0  0  0  0  0  2  0  0  0  0  0  0
   19.8380   36.6140  -18.4170 C   0  0  0  0  0  3  0  0  0  0  0  0
   20.5520   37.5270  -19.2720 C   0  0  0  0  0  0  0  0  0  0  0  0
   20.7690   38.8870  -18.8510 C   0  0  0  0  0  1  0  0  0  0  0  0
   18.6900   32.9800  -18.4040 C   0  0  0  0  0  1  0  0  0  0  0  0
   21.0590   37.0700  -20.5740 N   0  0  0  0  0  0  0  0  0  0  0  0
   22.2860   36.2630  -20.6420 C   0  0  0  0  0  2  0  0  0  0  0  0
   23.4450   37.0510  -20.0540 C   0  0  0  0  0  2  0  0  0  0  0  0
   23.1510   37.3790  -18.6510 N   0  0  0  0  0  4  0  0  0  0  0  0
   22.9650   36.1380  -17.8860 C   0  0  0  0  0  1  0  0  0  0  0  0
   20.3390   37.4180  -21.8070 C   0  0  0  0  0  1  0  0  0  0  0  0
   24.2710   38.1420  -18.0820 C   0  0  0  0  0  1  0  0  0  0  0  0
   22.3000   37.9390  -18.6030 H   0  0  0  0  0  0  0  0  0  0  0  0
   12.8510   30.7130  -16.4180 C   0  0  0  0  0  2  0  0  0  0  0  0
   12.8140   32.0990  -17.0400 C   0  0  0  0  0  2  0  0  0  0  0  0
  1 19  1  0  0  0  0
  1 14  1  0  0  0  0
  1  2  1  0  0  0  0
  2  7  1  0  0  0  0
  3  2  2  0  0  0  0
  3  4  2  0  0  0  0
  4  5  2  0  0  0  0
  5  6  1  0  0  0  0
  7  8  1  0  0  0  0
  7  6  2  0  0  0  0
  9  8  2  0  0  0  0
 10  1  1  0  0  0  0
 11 10  1  0  0  0  0
 12  4  1  0  0  0  0
 12 13  1  0  0  0  0
 14 15  1  6  0  0  0
 15 16  2  0  0  0  0
 17 18  1  6  0  0  0
 17 16  1  0  0  0  0
 19 14  1  0  0  0  0
 19 40  1  1  0  0  0
 20 11  1  0  0  0  0
 21 17  1  0  0  0  0
 22 23  2  0  0  0  0
 22 21  1  0  0  0  0
 23 24  1  0  0  0  0
 25 21  2  0  0  0  0
 26 12  2  0  0  0  0
 27 28  1  0  0  0  0
 27 26  1  0  0  0  0
 29 30  1  0  0  0  0
 29 28  2  0  0  0  0
 31 26  1  0  0  0  0
 32 29  1  0  0  0  0
 33 32  1  0  0  0  0
 33 34  1  0  0  0  0
 34 35  1  0  0  0  0
 35 39  1  0  0  0  0
 35 38  1  0  0  0  0
 35 36  1  0  0  0  0
 37 32  1  0  0  0  0
 41 40  1  0  0  0  0
 41  9  1  0  0  0  0
M  END
>  <minimizedAffinity>
-8.34290791

$$$$
