
 OpenBabel07312502283D

 41 42  0  0  1  0  0  0  0  0999 V2000
   16.8870   33.4010  -16.9580 N   0  0  0  0  0  4  0  0  0  0  0  0
   15.5850   33.6860  -16.5540 C   0  0  0  0  0  0  0  0  0  0  0  0
   14.5060   33.1620  -17.2630 N   0  0  0  0  0  4  0  0  0  0  0  0
   13.2040   33.4460  -16.8590 C   0  0  0  0  0  0  0  0  0  0  0  0
   12.9790   34.2540  -15.7470 N   0  0  0  0  0  0  0  0  0  0  0  0
   14.0590   34.7780  -15.0380 C   0  0  0  0  0  3  0  0  0  0  0  0
   15.3530   34.5220  -15.4040 C   0  0  0  0  0  0  0  0  0  0  0  0
   16.4690   35.0630  -14.6720 C   0  0  0  0  0  3  0  0  0  0  0  0
   17.8150   34.7690  -15.0890 C   0  0  0  0  0  3  0  0  0  0  0  0
   17.1120   32.5940  -18.0700 C   0  0  0  0  0  2  0  0  0  0  0  0
   18.2990   32.3340  -18.4380 O   0  0  0  0  0  0  0  0  0  0  0  0
   12.0660   32.8930  -17.6070 N   0  0  0  0  0  4  0  0  0  0  0  0
   11.1120   33.1010  -17.3120 H   0  0  0  0  0  0  0  0  0  0  0  0
   18.0600   33.8880  -16.3030 C   0  0  2  0  0  3  0  0  0  0  0  0
   18.7650   34.4120  -17.4440 C   0  0  0  0  0  3  0  0  0  0  0  0
   19.2370   35.7730  -17.4350 C   0  0  0  0  0  3  0  0  0  0  0  0
   19.9410   36.2980  -18.5760 C   0  0  2  0  0  3  0  0  0  0  0  0
   20.4130   37.6590  -18.5670 C   0  0  0  0  0  1  0  0  0  0  0  0
   17.5880   32.5270  -16.3120 C   0  0  0  0  0  2  0  0  0  0  0  0
   19.0520   33.3800  -18.8650 Cl  0  0  0  0  0  0  0  0  0  0  0  0
   20.1860   35.4160  -19.7900 C   0  0  0  0  0  0  0  0  0  0  0  0
   21.4030   34.6510  -19.8900 C   0  0  0  0  0  3  0  0  0  0  0  0
   22.3530   34.7190  -18.8760 N   0  0  0  0  0  0  0  0  0  0  0  0
   22.1290   35.5260  -17.7630 C   0  0  0  0  0  1  0  0  0  0  0  0
   19.0150   35.3330  -21.0400 S   0  0  0  0  0  0  0  0  0  0  0  0
   12.3020   32.0410  -18.7810 C   0  0  0  0  0  0  0  0  0  0  0  0
   12.1880   32.5940  -20.1060 C   0  0  0  0  0  3  0  0  0  0  0  0
   11.8430   33.9810  -20.2800 C   0  0  0  0  0  3  0  0  0  0  0  0
   11.7280   34.5330  -21.6060 C   0  0  1  0  0  3  0  0  0  0  0  0
   11.3830   35.9210  -21.7800 C   0  0  0  0  0  1  0  0  0  0  0  0
   12.6470   30.6540  -18.6070 C   0  0  0  0  0  1  0  0  0  0  0  0
   11.9640   33.6820  -22.7800 N   0  0  0  0  0  0  0  0  0  0  0  0
   10.8420   33.3030  -23.6500 C   0  0  0  0  0  2  0  0  0  0  0  0
    9.8100   32.5350  -22.8410 C   0  0  0  0  0  2  0  0  0  0  0  0
    9.3160   33.3820  -21.7460 N   0  0  0  0  0  4  0  0  0  0  0  0
    8.6980   34.5940  -22.3040 C   0  0  0  0  0  1  0  0  0  0  0  0
   13.3220   33.2100  -23.0840 C   0  0  0  0  0  1  0  0  0  0  0  0
    8.3180   32.6390  -20.9630 C   0  0  0  0  0  1  0  0  0  0  0  0
   10.0950   33.6440  -21.1420 H   0  0  0  0  0  0  0  0  0  0  0  0
   18.3240   33.0660  -15.0130 C   0  0  0  0  0  1  0  0  0  0  0  0
   18.0260   33.9550  -16.2100 C   0  0  0  0  0  2  0  0  0  0  0  0
  1  2  1  0  0  0  0
  1 19  1  0  0  0  0
  1 14  1  0  0  0  0
  2  7  1  0  0  0  0
  3  4  2  0  0  0  0
  3  2  2  0  0  0  0
  4  5  2  0  0  0  0
  5  6  1  0  0  0  0
  7  6  2  0  0  0  0
  7  8  1  0  0  0  0
  9  8  2  0  0  0  0
 10  1  1  0  0  0  0
 11 10  1  0  0  0  0
 12 13  1  0  0  0  0
 12  4  1  0  0  0  0
 14 15  1  6  0  0  0
 15 16  2  0  0  0  0
 17 18  1  6  0  0  0
 17 16  1  0  0  0  0
 19 14  1  0  0  0  0
 20 11  1  0  0  0  0
 21 17  1  0  0  0  0
 22 21  1  0  0  0  0
 22 23  2  0  0  0  0
 23 24  1  0  0  0  0
 25 21  2  0  0  0  0
 26 31  1  0  0  0  0
 26 12  2  0  0  0  0
 27 26  1  0  0  0  0
 28 27  2  0  0  0  0
 29 30  1  1  0  0  0
 29 28  1  0  0  0  0
 32 29  1  0  0  0  0
 33 34  1  0  0  0  0
 33 32  1  0  0  0  0
 34 35  1  0  0  0  0
 35 39  1  0  0  0  0
 35 38  1  0  0  0  0
 36 35  1  0  0  0  0
 37 32  1  0  0  0  0
 41  9  1  0  0  0  0
 41 40  1  0  0  0  0
M  END
>  <minimizedAffinity>
-8.54538345

$$$$
