
 OpenBabel07302502303D

 41 42  0  0  1  0  0  0  0  0999 V2000
   17.7530   32.8360  -20.3830 N   0  0  0  0  0  4  0  0  0  0  0  0
   16.4130   33.2050  -20.4750 C   0  0  0  0  0  0  0  0  0  0  0  0
   15.5420   32.9330  -19.4230 N   0  0  0  0  0  4  0  0  0  0  0  0
   14.2020   33.3010  -19.5150 C   0  0  0  0  0  0  0  0  0  0  0  0
   13.7330   33.9420  -20.6590 N   0  0  0  0  0  0  0  0  0  0  0  0
   14.6040   34.2140  -21.7120 C   0  0  0  0  0  3  0  0  0  0  0  0
   15.9280   33.8680  -21.6580 C   0  0  0  0  0  0  0  0  0  0  0  0
   16.8290   34.1490  -22.7460 C   0  0  0  0  0  3  0  0  0  0  0  0
   18.2150   33.7680  -22.6510 C   0  0  0  0  0  3  0  0  0  0  0  0
   18.2220   32.1950  -19.2380 C   0  0  0  0  0  2  0  0  0  0  0  0
   19.4440   31.8600  -19.1540 O   0  0  0  0  0  0  0  0  0  0  0  0
   13.2820   33.0140  -18.4040 N   0  0  0  0  0  4  0  0  0  0  0  0
   12.3010   33.2840  -18.4720 H   0  0  0  0  0  0  0  0  0  0  0  0
   18.7260   33.0680  -21.4020 C   0  0  1  0  0  3  0  0  0  0  0  0
   19.7410   33.6920  -20.5920 C   0  0  0  0  0  2  0  0  0  0  0  0
   20.2720   34.9780  -20.9660 C   0  0  0  0  0  3  0  0  0  0  0  0
   21.2870   35.6000  -20.1560 C   0  0  0  0  0  0  0  0  0  0  0  0
   21.8170   36.8860  -20.5290 C   0  0  0  0  0  1  0  0  0  0  0  0
   18.1960   31.7830  -21.0280 C   0  0  0  0  0  2  0  0  0  0  0  0
   20.3400   32.8730  -19.1290 Cl  0  0  0  0  0  0  0  0  0  0  0  0
   21.7980   34.9010  -18.9070 C   0  0  0  0  0  0  0  0  0  0  0  0
   21.1920   35.1750  -17.6290 C   0  0  0  0  0  3  0  0  0  0  0  0
   20.1380   36.0800  -17.5380 N   0  0  0  0  0  0  0  0  0  0  0  0
   19.6680   36.7200  -18.6820 C   0  0  0  0  0  1  0  0  0  0  0  0
   23.0970   33.7870  -19.0190 S   0  0  0  0  0  0  0  0  0  0  0  0
   13.7770   32.3380  -17.1970 C   0  0  0  0  0  0  0  0  0  0  0  0
   14.1600   33.1120  -16.0440 C   0  0  0  0  0  2  0  0  0  0  0  0
   14.0580   34.5490  -16.0750 C   0  0  0  0  0  3  0  0  0  0  0  0
   14.4410   35.3230  -14.9220 C   0  0  0  0  0  0  0  0  0  0  0  0
   14.3390   36.7590  -14.9530 C   0  0  0  0  0  1  0  0  0  0  0  0
   13.8790   30.9020  -17.1660 C   0  0  0  0  0  1  0  0  0  0  0  0
   14.9360   34.6460  -13.7150 N   0  0  0  0  0  0  0  0  0  0  0  0
   13.9940   33.9600  -12.8190 C   0  0  0  0  0  2  0  0  0  0  0  0
   12.9790   34.9590  -12.2890 C   0  0  0  0  0  2  0  0  0  0  0  0
   12.2410   35.5510  -13.4150 N   0  0  0  0  0  4  0  0  0  0  0  0
   11.5440   34.4910  -14.1560 C   0  0  0  0  0  1  0  0  0  0  0  0
   16.3730   34.6540  -13.4040 C   0  0  0  0  0  1  0  0  0  0  0  0
   11.2600   36.5180  -12.9030 C   0  0  0  0  0  1  0  0  0  0  0  0
   12.8950   36.0280  -14.0370 H   0  0  0  0  0  0  0  0  0  0  0  0
   18.7460   31.9170  -22.4150 C   0  0  0  0  0  1  0  0  0  0  0  0
   18.6730   33.1230  -21.4930 C   0  0  0  0  0  2  0  0  0  0  0  0
  1 10  1  0  0  0  0
  2  1  1  0  0  0  0
  2  3  2  0  0  0  0
  4  3  2  0  0  0  0
  4 12  1  0  0  0  0
  5  4  2  0  0  0  0
  6  7  2  0  0  0  0
  6  5  1  0  0  0  0
  7  2  1  0  0  0  0
  8  9  2  0  0  0  0
  8  7  1  0  0  0  0
  9 41  1  0  0  0  0
 10 11  1  0  0  0  0
 11 20  1  0  0  0  0
 12 26  2  0  0  0  0
 13 12  1  0  0  0  0
 14 19  1  0  0  0  0
 14 15  1  1  0  0  0
 14  1  1  0  0  0  0
 16 15  1  0  0  0  0
 16 17  2  0  0  0  0
 17 21  1  0  0  0  0
 18 17  1  0  0  0  0
 19  1  1  0  0  0  0
 21 22  1  0  0  0  0
 22 23  2  0  0  0  0
 24 23  1  0  0  0  0
 25 21  2  0  0  0  0
 26 31  1  0  0  0  0
 26 27  1  0  0  0  0
 28 27  1  0  0  0  0
 28 29  2  0  0  0  0
 29 32  1  0  0  0  0
 30 29  1  0  0  0  0
 32 37  1  0  0  0  0
 32 33  1  0  0  0  0
 33 34  1  0  0  0  0
 35 38  1  0  0  0  0
 35 34  1  0  0  0  0
 36 35  1  0  0  0  0
 39 35  1  0  0  0  0
 40 41  1  0  0  0  0
M  END
>  <minimizedAffinity>
-8.51565933

$$$$
