
 OpenBabel07312502283D

 41 43  0  0  1  0  0  0  0  0999 V2000
   13.3400   33.4570  -17.6990 N   0  0  0  0  0  4  0  0  0  0  0  0
   13.7460   34.0940  -18.8690 C   0  0  0  0  0  0  0  0  0  0  0  0
   15.0590   33.9580  -19.3160 N   0  0  0  0  0  4  0  0  0  0  0  0
   15.4660   34.5950  -20.4850 C   0  0  0  0  0  0  0  0  0  0  0  0
   14.5620   35.3680  -21.2090 N   0  0  0  0  0  0  0  0  0  0  0  0
   13.2490   35.5040  -20.7620 C   0  0  0  0  0  3  0  0  0  0  0  0
   12.8100   34.8940  -19.6170 C   0  0  0  0  0  0  0  0  0  0  0  0
   11.4540   35.0350  -19.1550 C   0  0  0  0  0  3  0  0  0  0  0  0
   11.0330   34.3760  -17.9460 C   0  0  0  0  0  3  0  0  0  0  0  0
   14.2440   32.6840  -16.9760 C   0  0  0  0  0  2  0  0  0  0  0  0
   13.8730   32.1030  -15.9090 O   0  0  0  0  0  0  0  0  0  0  0  0
   16.8500   34.4500  -20.9570 N   0  0  0  0  0  4  0  0  0  0  0  0
   17.1490   34.9170  -21.8140 H   0  0  0  0  0  0  0  0  0  0  0  0
   12.0210   33.5330  -17.1560 C   0  0  2  0  0  3  0  0  0  0  0  0
   12.4090   33.9330  -15.8280 C   0  0  0  0  0  3  0  0  0  0  0  0
   11.8630   35.1330  -15.2490 C   0  0  0  0  0  3  0  0  0  0  0  0
   12.2520   35.5330  -13.9210 C   0  0  2  0  0  3  0  0  0  0  0  0
   11.7060   36.7340  -13.3420 C   0  0  0  0  0  1  0  0  0  0  0  0
   12.5670   32.3330  -17.7350 C   0  0  1  0  0  3  0  0  0  0  0  0
   13.5650   32.9450  -14.9030 Cl  0  0  0  0  0  0  0  0  0  0  0  0
   13.2390   34.6890  -13.1310 C   0  0  0  0  0  0  0  0  0  0  0  0
   12.7590   33.7270  -12.1730 C   0  0  0  0  0  3  0  0  0  0  0  0
   11.3900   33.5700  -11.9710 N   0  0  0  0  0  0  0  0  0  0  0  0
   10.4850   34.3430  -12.6960 C   0  0  0  0  0  1  0  0  0  0  0  0
   14.9250   34.8840  -13.3800 S   0  0  0  0  0  0  0  0  0  0  0  0
   17.8060   33.6350  -20.1940 C   0  0  0  0  0  0  0  0  0  0  0  0
   18.8070   34.2730  -19.3780 C   0  0  0  0  0  3  0  0  0  0  0  0
   18.8710   35.7110  -19.3110 C   0  0  0  0  0  3  0  0  0  0  0  0
   19.8730   36.3490  -18.4960 C   0  0  1  0  0  3  0  0  0  0  0  0
   19.9370   37.7870  -18.4300 C   0  0  0  0  0  1  0  0  0  0  0  0
   17.7410   32.1980  -20.2600 C   0  0  0  0  0  1  0  0  0  0  0  0
   20.8280   35.5340  -17.7330 N   0  0  0  0  0  0  0  0  0  0  0  0
   22.2370   35.4720  -18.1480 C   0  0  0  0  0  2  0  0  0  0  0  0
   22.3250   34.9150  -19.5590 C   0  0  0  0  0  2  0  0  0  0  0  0
   21.5820   35.7880  -20.4780 N   0  0  0  0  0  4  0  0  0  0  0  0
   22.1620   37.1390  -20.4480 C   0  0  0  0  0  1  0  0  0  0  0  0
   20.3750   34.7830  -16.5540 C   0  0  0  0  0  1  0  0  0  0  0  0
   21.6670   35.2490  -21.8430 C   0  0  0  0  0  1  0  0  0  0  0  0
   20.6040   35.8310  -20.1900 H   0  0  0  0  0  0  0  0  0  0  0  0
   11.0920   32.5170  -17.8520 C   0  0  0  0  0  2  0  0  0  0  0  0
   11.9540   33.6020  -17.2270 C   0  0  0  0  0  2  0  0  0  0  0  0
  1 14  1  0  0  0  0
  1 10  1  0  0  0  0
  2  1  1  0  0  0  0
  3  2  2  0  0  0  0
  4  3  2  0  0  0  0
  5  6  1  0  0  0  0
  5  4  2  0  0  0  0
  6  7  2  0  0  0  0
  7  8  1  0  0  0  0
  7  2  1  0  0  0  0
  8  9  2  0  0  0  0
  9 41  1  0  0  0  0
 10 11  1  0  0  0  0
 11 20  1  0  0  0  0
 12  4  1  0  0  0  0
 12 26  2  0  0  0  0
 13 12  1  0  0  0  0
 14 15  1  1  0  0  0
 15 16  2  0  0  0  0
 16 17  1  0  0  0  0
 17 18  1  6  0  0  0
 17 21  1  0  0  0  0
 19 40  1  6  0  0  0
 19  1  1  0  0  0  0
 19 14  1  0  0  0  0
 21 22  1  0  0  0  0
 22 23  2  0  0  0  0
 24 23  1  0  0  0  0
 25 21  2  0  0  0  0
 26 27  1  0  0  0  0
 27 28  2  0  0  0  0
 28 29  1  0  0  0  0
 29 30  1  1  0  0  0
 29 32  1  0  0  0  0
 31 26  1  0  0  0  0
 32 37  1  0  0  0  0
 33 32  1  0  0  0  0
 34 33  1  0  0  0  0
 35 36  1  0  0  0  0
 35 39  1  0  0  0  0
 35 34  1  0  0  0  0
 38 35  1  0  0  0  0
 40 41  1  0  0  0  0
M  END
>  <minimizedAffinity>
-9.12385654

$$$$

 OpenBabel07312502283D

 41 42  0  0  1  0  0  0  0  0999 V2000
   16.8780   33.4780  -17.0480 N   0  0  0  0  0  4  0  0  0  0  0  0
   15.5590   33.8690  -16.8280 C   0  0  0  0  0  0  0  0  0  0  0  0
   14.5290   33.2880  -17.5650 N   0  0  0  0  0  4  0  0  0  0  0  0
   13.2100   33.6780  -17.3450 C   0  0  0  0  0  0  0  0  0  0  0  0
   12.9200   34.6490  -16.3890 N   0  0  0  0  0  0  0  0  0  0  0  0
   13.9510   35.2290  -15.6520 C   0  0  0  0  0  3  0  0  0  0  0  0
   15.2600   34.8720  -15.8390 C   0  0  0  0  0  0  0  0  0  0  0  0
   16.3240   35.4720  -15.0780 C   0  0  0  0  0  3  0  0  0  0  0  0
   17.6880   35.0680  -15.3040 C   0  0  0  0  0  3  0  0  0  0  0  0
   17.1670   32.5080  -18.0040 C   0  0  0  0  0  2  0  0  0  0  0  0
   18.3700   32.1510  -18.2040 O   0  0  0  0  0  0  0  0  0  0  0  0
   12.1240   33.0660  -18.1230 N   0  0  0  0  0  4  0  0  0  0  0  0
   11.1570   33.3510  -17.9620 H   0  0  0  0  0  0  0  0  0  0  0  0
   18.0040   34.0100  -16.3480 C   0  0  2  0  0  3  0  0  0  0  0  0
   18.8970   34.3150  -17.4360 C   0  0  0  0  0  3  0  0  0  0  0  0
   19.4890   35.6230  -17.5360 C   0  0  0  0  0  3  0  0  0  0  0  0
   20.3810   35.9280  -18.6250 C   0  0  1  0  0  3  0  0  0  0  0  0
   20.9740   37.2380  -18.7240 C   0  0  0  0  0  1  0  0  0  0  0  0
   17.4110   32.7010  -16.2480 C   0  0  0  0  0  2  0  0  0  0  0  0
   19.2670   33.0740  -18.6580 Cl  0  0  0  0  0  0  0  0  0  0  0  0
   20.6980   34.8690  -19.6680 C   0  0  0  0  0  0  0  0  0  0  0  0
   21.8510   34.0210  -19.5060 C   0  0  0  0  0  3  0  0  0  0  0  0
   22.6750   34.1700  -18.3940 N   0  0  0  0  0  0  0  0  0  0  0  0
   22.3840   35.1410  -17.4370 C   0  0  0  0  0  1  0  0  0  0  0  0
   19.6830   34.6850  -21.0390 S   0  0  0  0  0  0  0  0  0  0  0  0
   12.4280   32.0420  -19.1320 C   0  0  0  0  0  0  0  0  0  0  0  0
   12.6570   32.4260  -20.5010 C   0  0  0  0  0  2  0  0  0  0  0  0
   12.5860   33.8140  -20.8810 C   0  0  0  0  0  3  0  0  0  0  0  0
   12.8140   34.1980  -22.2500 C   0  0  0  0  0  0  0  0  0  0  0  0
   12.7420   35.5860  -22.6290 C   0  0  0  0  0  1  0  0  0  0  0  0
   12.5000   30.6550  -18.7530 C   0  0  0  0  0  1  0  0  0  0  0  0
   13.1180   33.1750  -23.2600 N   0  0  0  0  0  0  0  0  0  0  0  0
   14.4650   32.5890  -23.3290 C   0  0  0  0  0  2  0  0  0  0  0  0
   15.4810   33.6860  -23.6010 C   0  0  0  0  0  2  0  0  0  0  0  0
   15.4330   34.6770  -22.5160 N   0  0  0  0  0  4  0  0  0  0  0  0
   15.7500   34.0220  -21.2380 C   0  0  0  0  0  1  0  0  0  0  0  0
   12.0770   32.7370  -24.2000 C   0  0  0  0  0  1  0  0  0  0  0  0
   16.4160   35.7390  -22.7780 C   0  0  0  0  0  1  0  0  0  0  0  0
   14.4990   35.0840  -22.4680 H   0  0  0  0  0  0  0  0  0  0  0  0
   18.2020   33.2800  -15.0060 C   0  0  0  0  0  1  0  0  0  0  0  0
   17.9650   34.0910  -16.2700 C   0  0  0  0  0  2  0  0  0  0  0  0
  1  2  1  0  0  0  0
  1 14  1  0  0  0  0
  1 19  1  0  0  0  0
  2  7  1  0  0  0  0
  3  4  2  0  0  0  0
  3  2  2  0  0  0  0
  4  5  2  0  0  0  0
  5  6  1  0  0  0  0
  7  6  2  0  0  0  0
  7  8  1  0  0  0  0
  9  8  2  0  0  0  0
 10  1  1  0  0  0  0
 11 10  1  0  0  0  0
 12 13  1  0  0  0  0
 12  4  1  0  0  0  0
 14 15  1  6  0  0  0
 14 19  1  0  0  0  0
 16 15  2  0  0  0  0
 17 18  1  1  0  0  0
 17 16  1  0  0  0  0
 20 11  1  0  0  0  0
 21 22  1  0  0  0  0
 21 17  1  0  0  0  0
 22 23  2  0  0  0  0
 23 24  1  0  0  0  0
 25 21  2  0  0  0  0
 26 31  1  0  0  0  0
 26 12  2  0  0  0  0
 27 26  1  0  0  0  0
 28 27  1  0  0  0  0
 29 28  2  0  0  0  0
 30 29  1  0  0  0  0
 32 29  1  0  0  0  0
 33 32  1  0  0  0  0
 34 33  1  0  0  0  0
 34 35  1  0  0  0  0
 35 39  1  0  0  0  0
 35 36  1  0  0  0  0
 37 32  1  0  0  0  0
 38 35  1  0  0  0  0
 41  9  1  0  0  0  0
 41 40  1  0  0  0  0
M  END
>  <minimizedAffinity>
-8.81604767

$$$$

 OpenBabel07312502283D

 41 42  0  0  1  0  0  0  0  0999 V2000
   16.8870   33.4010  -16.9580 N   0  0  0  0  0  4  0  0  0  0  0  0
   15.5850   33.6860  -16.5540 C   0  0  0  0  0  0  0  0  0  0  0  0
   14.5060   33.1620  -17.2630 N   0  0  0  0  0  4  0  0  0  0  0  0
   13.2040   33.4460  -16.8590 C   0  0  0  0  0  0  0  0  0  0  0  0
   12.9790   34.2540  -15.7470 N   0  0  0  0  0  0  0  0  0  0  0  0
   14.0590   34.7780  -15.0380 C   0  0  0  0  0  3  0  0  0  0  0  0
   15.3530   34.5220  -15.4040 C   0  0  0  0  0  0  0  0  0  0  0  0
   16.4690   35.0630  -14.6720 C   0  0  0  0  0  3  0  0  0  0  0  0
   17.8150   34.7690  -15.0890 C   0  0  0  0  0  3  0  0  0  0  0  0
   17.1120   32.5940  -18.0700 C   0  0  0  0  0  2  0  0  0  0  0  0
   18.2990   32.3340  -18.4380 O   0  0  0  0  0  0  0  0  0  0  0  0
   12.0660   32.8930  -17.6070 N   0  0  0  0  0  4  0  0  0  0  0  0
   11.1120   33.1010  -17.3120 H   0  0  0  0  0  0  0  0  0  0  0  0
   18.0600   33.8880  -16.3030 C   0  0  2  0  0  3  0  0  0  0  0  0
   18.7650   34.4120  -17.4440 C   0  0  0  0  0  3  0  0  0  0  0  0
   19.2370   35.7730  -17.4350 C   0  0  0  0  0  3  0  0  0  0  0  0
   19.9410   36.2980  -18.5760 C   0  0  2  0  0  3  0  0  0  0  0  0
   20.4130   37.6590  -18.5670 C   0  0  0  0  0  1  0  0  0  0  0  0
   17.5880   32.5270  -16.3120 C   0  0  0  0  0  2  0  0  0  0  0  0
   19.0520   33.3800  -18.8650 Cl  0  0  0  0  0  0  0  0  0  0  0  0
   20.1860   35.4160  -19.7900 C   0  0  0  0  0  0  0  0  0  0  0  0
   21.4030   34.6510  -19.8900 C   0  0  0  0  0  3  0  0  0  0  0  0
   22.3530   34.7190  -18.8760 N   0  0  0  0  0  0  0  0  0  0  0  0
   22.1290   35.5260  -17.7630 C   0  0  0  0  0  1  0  0  0  0  0  0
   19.0150   35.3330  -21.0400 S   0  0  0  0  0  0  0  0  0  0  0  0
   12.3020   32.0410  -18.7810 C   0  0  0  0  0  0  0  0  0  0  0  0
   12.1880   32.5940  -20.1060 C   0  0  0  0  0  3  0  0  0  0  0  0
   11.8430   33.9810  -20.2800 C   0  0  0  0  0  3  0  0  0  0  0  0
   11.7280   34.5330  -21.6060 C   0  0  1  0  0  3  0  0  0  0  0  0
   11.3830   35.9210  -21.7800 C   0  0  0  0  0  1  0  0  0  0  0  0
   12.6470   30.6540  -18.6070 C   0  0  0  0  0  1  0  0  0  0  0  0
   11.9640   33.6820  -22.7800 N   0  0  0  0  0  0  0  0  0  0  0  0
   10.8420   33.3030  -23.6500 C   0  0  0  0  0  2  0  0  0  0  0  0
    9.8100   32.5350  -22.8410 C   0  0  0  0  0  2  0  0  0  0  0  0
    9.3160   33.3820  -21.7460 N   0  0  0  0  0  4  0  0  0  0  0  0
    8.6980   34.5940  -22.3040 C   0  0  0  0  0  1  0  0  0  0  0  0
   13.3220   33.2100  -23.0840 C   0  0  0  0  0  1  0  0  0  0  0  0
    8.3180   32.6390  -20.9630 C   0  0  0  0  0  1  0  0  0  0  0  0
   10.0950   33.6440  -21.1420 H   0  0  0  0  0  0  0  0  0  0  0  0
   18.3240   33.0660  -15.0130 C   0  0  0  0  0  1  0  0  0  0  0  0
   18.0260   33.9550  -16.2100 C   0  0  0  0  0  2  0  0  0  0  0  0
  1  2  1  0  0  0  0
  1 19  1  0  0  0  0
  1 14  1  0  0  0  0
  2  7  1  0  0  0  0
  3  4  2  0  0  0  0
  3  2  2  0  0  0  0
  4  5  2  0  0  0  0
  5  6  1  0  0  0  0
  7  6  2  0  0  0  0
  7  8  1  0  0  0  0
  9  8  2  0  0  0  0
 10  1  1  0  0  0  0
 11 10  1  0  0  0  0
 12 13  1  0  0  0  0
 12  4  1  0  0  0  0
 14 15  1  6  0  0  0
 15 16  2  0  0  0  0
 17 18  1  6  0  0  0
 17 16  1  0  0  0  0
 19 14  1  0  0  0  0
 20 11  1  0  0  0  0
 21 17  1  0  0  0  0
 22 21  1  0  0  0  0
 22 23  2  0  0  0  0
 23 24  1  0  0  0  0
 25 21  2  0  0  0  0
 26 31  1  0  0  0  0
 26 12  2  0  0  0  0
 27 26  1  0  0  0  0
 28 27  2  0  0  0  0
 29 30  1  1  0  0  0
 29 28  1  0  0  0  0
 32 29  1  0  0  0  0
 33 34  1  0  0  0  0
 33 32  1  0  0  0  0
 34 35  1  0  0  0  0
 35 39  1  0  0  0  0
 35 38  1  0  0  0  0
 36 35  1  0  0  0  0
 37 32  1  0  0  0  0
 41  9  1  0  0  0  0
 41 40  1  0  0  0  0
M  END
>  <minimizedAffinity>
-8.54538345

$$$$

 OpenBabel07312502283D

 41 42  0  0  1  0  0  0  0  0999 V2000
   13.4570   34.2270  -18.4840 N   0  0  0  0  0  0  0  0  0  0  0  0
   14.2050   33.0520  -18.4370 C   0  0  0  0  0  0  0  0  0  0  0  0
   15.3240   32.9060  -19.2530 N   0  0  0  0  0  4  0  0  0  0  0  0
   16.0720   31.7320  -19.2060 C   0  0  0  0  0  0  0  0  0  0  0  0
   15.7010   30.7040  -18.3430 N   0  0  0  0  0  0  0  0  0  0  0  0
   14.5810   30.8500  -17.5260 C   0  0  0  0  0  3  0  0  0  0  0  0
   13.8210   31.9890  -17.5440 C   0  0  0  0  0  0  0  0  0  0  0  0
   12.6640   32.1400  -16.7010 C   0  0  0  0  0  3  0  0  0  0  0  0
   11.8910   33.3540  -16.7490 C   0  0  0  0  0  3  0  0  0  0  0  0
   13.8280   35.2550  -19.3470 C   0  0  0  0  0  2  0  0  0  0  0  0
   13.1470   36.3260  -19.3900 O   0  0  0  0  0  0  0  0  0  0  0  0
   17.2530   31.5780  -20.0660 N   0  0  0  0  0  4  0  0  0  0  0  0
   17.8010   30.7190  -20.0330 H   0  0  0  0  0  0  0  0  0  0  0  0
   12.2960   34.4760  -17.6910 C   0  0  2  0  0  3  0  0  0  0  0  0
   11.5680   34.6850  -18.9170 C   0  0  0  0  0  3  0  0  0  0  0  0
   10.4590   33.8300  -19.2500 C   0  0  0  0  0  3  0  0  0  0  0  0
    9.7320   34.0390  -20.4760 C   0  0  2  0  0  3  0  0  0  0  0  0
    8.6220   33.1840  -20.8100 C   0  0  0  0  0  1  0  0  0  0  0  0
   13.4060   35.3310  -17.3580 C   0  0  0  0  0  2  0  0  0  0  0  0
   12.0420   36.0000  -20.0200 Cl  0  0  0  0  0  0  0  0  0  0  0  0
   10.1370   35.1620  -21.4180 C   0  0  0  0  0  0  0  0  0  0  0  0
   11.0670   34.9050  -22.4870 C   0  0  0  0  0  3  0  0  0  0  0  0
   11.5960   33.6280  -22.6590 N   0  0  0  0  0  0  0  0  0  0  0  0
   11.2250   32.5990  -21.7960 C   0  0  0  0  0  1  0  0  0  0  0  0
    9.4850   36.7340  -21.2060 S   0  0  0  0  0  0  0  0  0  0  0  0
   17.6450   32.6630  -20.9780 C   0  0  0  0  0  0  0  0  0  0  0  0
   18.3900   33.7900  -20.4780 C   0  0  0  0  0  2  0  0  0  0  0  0
   18.7490   33.8540  -19.0840 C   0  0  0  0  0  3  0  0  0  0  0  0
   19.4920   34.9820  -18.5840 C   0  0  0  0  0  0  0  0  0  0  0  0
   19.8510   35.0460  -17.1900 C   0  0  0  0  0  1  0  0  0  0  0  0
   17.2870   32.5980  -22.3710 C   0  0  0  0  0  1  0  0  0  0  0  0
   19.8850   36.0660  -19.4950 N   0  0  0  0  0  0  0  0  0  0  0  0
   21.0710   35.9150  -20.3500 C   0  0  0  0  0  2  0  0  0  0  0  0
   22.2990   35.7040  -19.4790 C   0  0  0  0  0  2  0  0  0  0  0  0
   22.1220   34.4920  -18.6680 N   0  0  0  0  0  4  0  0  0  0  0  0
   21.9440   33.3310  -19.5520 C   0  0  0  0  0  1  0  0  0  0  0  0
   19.0910   37.3020  -19.5520 C   0  0  0  0  0  1  0  0  0  0  0  0
   23.3090   34.2880  -17.8250 C   0  0  0  0  0  1  0  0  0  0  0  0
   21.2990   34.5970  -18.0740 H   0  0  0  0  0  0  0  0  0  0  0  0
   12.6850   35.0400  -16.3150 C   0  0  0  0  0  2  0  0  0  0  0  0
   12.2750   34.3810  -17.6220 C   0  0  0  0  0  2  0  0  0  0  0  0
  1  2  1  0  0  0  0
  1 14  1  0  0  0  0
  2  7  1  0  0  0  0
  3  4  2  0  0  0  0
  3  2  2  0  0  0  0
  4  5  2  0  0  0  0
  5  6  1  0  0  0  0
  7  6  2  0  0  0  0
  7  8  1  0  0  0  0
  9  8  2  0  0  0  0
 10  1  1  0  0  0  0
 11 10  1  0  0  0  0
 12 13  1  0  0  0  0
 12  4  1  0  0  0  0
 14 15  1  6  0  0  0
 14 19  1  0  0  0  0
 16 15  2  0  0  0  0
 17 18  1  6  0  0  0
 17 16  1  0  0  0  0
 19 40  1  0  0  0  0
 20 11  1  0  0  0  0
 21 25  2  0  0  0  0
 21 17  1  0  0  0  0
 22 21  1  0  0  0  0
 23 22  2  0  0  0  0
 23 24  1  0  0  0  0
 26 27  1  0  0  0  0
 26 12  2  0  0  0  0
 27 28  1  0  0  0  0
 28 29  2  0  0  0  0
 29 30  1  0  0  0  0
 31 26  1  0  0  0  0
 32 29  1  0  0  0  0
 33 32  1  0  0  0  0
 33 34  1  0  0  0  0
 34 35  1  0  0  0  0
 35 39  1  0  0  0  0
 35 38  1  0  0  0  0
 36 35  1  0  0  0  0
 37 32  1  0  0  0  0
 41  9  1  0  0  0  0
 41 40  1  0  0  0  0
M  END
>  <minimizedAffinity>
-8.499403

$$$$

 OpenBabel07312502283D

 41 43  0  0  1  0  0  0  0  0999 V2000
   16.3730   32.6010  -19.8230 N   0  0  0  0  0  4  0  0  0  0  0  0
   15.0040   32.8610  -19.8470 C   0  0  0  0  0  0  0  0  0  0  0  0
   14.2250   32.5950  -18.7230 N   0  0  0  0  0  4  0  0  0  0  0  0
   12.8580   32.8560  -18.7470 C   0  0  0  0  0  0  0  0  0  0  0  0
   12.2670   33.3810  -19.8940 N   0  0  0  0  0  0  0  0  0  0  0  0
   13.0470   33.6470  -21.0180 C   0  0  0  0  0  3  0  0  0  0  0  0
   14.3950   33.4050  -21.0340 C   0  0  0  0  0  0  0  0  0  0  0  0
   15.2000   33.6790  -22.1950 C   0  0  0  0  0  3  0  0  0  0  0  0
   16.6150   33.4110  -22.1700 C   0  0  0  0  0  3  0  0  0  0  0  0
   16.9620   32.0760  -18.6760 C   0  0  0  0  0  2  0  0  0  0  0  0
   18.2100   31.8390  -18.6530 O   0  0  0  0  0  0  0  0  0  0  0  0
   12.0350   32.5760  -17.5620 N   0  0  0  0  0  4  0  0  0  0  0  0
   11.0330   32.7660  -17.5780 H   0  0  0  0  0  0  0  0  0  0  0  0
   17.2580   32.8370  -20.9190 C   0  0  1  0  0  3  0  0  0  0  0  0
   18.2290   33.6100  -20.1880 C   0  0  0  0  0  2  0  0  0  0  0  0
   18.5920   34.9270  -20.6440 C   0  0  0  0  0  3  0  0  0  0  0  0
   19.5630   35.7000  -19.9140 C   0  0  0  0  0  0  0  0  0  0  0  0
   19.9260   37.0170  -20.3710 C   0  0  0  0  0  1  0  0  0  0  0  0
   16.8960   31.5200  -20.4620 C   0  0  2  0  0  3  0  0  0  0  0  0
   18.9820   32.9380  -18.7210 Cl  0  0  0  0  0  0  0  0  0  0  0  0
   20.2050   35.1260  -18.6620 C   0  0  0  0  0  0  0  0  0  0  0  0
   21.4510   34.4100  -18.7550 C   0  0  0  0  0  3  0  0  0  0  0  0
   22.0680   34.2430  -19.9920 N   0  0  0  0  0  0  0  0  0  0  0  0
   21.4800   34.7690  -21.1400 C   0  0  0  0  0  1  0  0  0  0  0  0
   19.4460   35.3320  -17.1370 S   0  0  0  0  0  0  0  0  0  0  0  0
   12.6570   32.0210  -16.3500 C   0  0  0  0  0  0  0  0  0  0  0  0
   12.8080   32.8430  -15.1770 C   0  0  0  0  0  2  0  0  0  0  0  0
   12.3520   34.2090  -15.1930 C   0  0  0  0  0  3  0  0  0  0  0  0
   12.5050   35.0320  -14.0200 C   0  0  0  0  0  0  0  0  0  0  0  0
   12.0490   36.3980  -14.0350 C   0  0  0  0  0  1  0  0  0  0  0  0
   13.1120   30.6550  -16.3350 C   0  0  0  0  0  1  0  0  0  0  0  0
   13.1250   34.4770  -12.8090 N   0  0  0  0  0  0  0  0  0  0  0  0
   14.5040   34.8430  -12.4570 C   0  0  0  0  0  2  0  0  0  0  0  0
   15.4420   34.4200  -13.5750 C   0  0  0  0  0  2  0  0  0  0  0  0
   15.0580   35.1000  -14.8200 N   0  0  0  0  0  4  0  0  0  0  0  0
   15.1470   36.5550  -14.6310 C   0  0  0  0  0  1  0  0  0  0  0  0
   12.3660   33.5580  -11.9490 C   0  0  0  0  0  1  0  0  0  0  0  0
   15.9640   34.6910  -15.9030 C   0  0  0  0  0  1  0  0  0  0  0  0
   14.1010   34.8460  -15.0650 H   0  0  0  0  0  0  0  0  0  0  0  0
   17.3430   31.6130  -21.8340 C   0  0  0  0  0  2  0  0  0  0  0  0
   17.1950   32.8820  -21.0090 C   0  0  0  0  0  2  0  0  0  0  0  0
  1 10  1  0  0  0  0
  2  1  1  0  0  0  0
  2  3  2  0  0  0  0
  4  3  2  0  0  0  0
  4 12  1  0  0  0  0
  5  4  2  0  0  0  0
  6  5  1  0  0  0  0
  7  6  2  0  0  0  0
  7  2  1  0  0  0  0
  8  9  2  0  0  0  0
  8  7  1  0  0  0  0
  9 41  1  0  0  0  0
 10 11  1  0  0  0  0
 12 26  2  0  0  0  0
 13 12  1  0  0  0  0
 14 19  1  0  0  0  0
 14 15  1  1  0  0  0
 14  1  1  0  0  0  0
 16 15  1  0  0  0  0
 16 17  2  0  0  0  0
 17 21  1  0  0  0  0
 18 17  1  0  0  0  0
 19 40  1  6  0  0  0
 19  1  1  0  0  0  0
 20 11  1  0  0  0  0
 21 25  2  0  0  0  0
 22 21  1  0  0  0  0
 23 22  2  0  0  0  0
 24 23  1  0  0  0  0
 26 31  1  0  0  0  0
 26 27  1  0  0  0  0
 28 27  1  0  0  0  0
 28 29  2  0  0  0  0
 29 32  1  0  0  0  0
 30 29  1  0  0  0  0
 32 33  1  0  0  0  0
 32 37  1  0  0  0  0
 34 33  1  0  0  0  0
 35 36  1  0  0  0  0
 35 34  1  0  0  0  0
 38 35  1  0  0  0  0
 39 35  1  0  0  0  0
 40 41  1  0  0  0  0
M  END
>  <minimizedAffinity>
-8.48780441

$$$$

 OpenBabel07312502283D

 41 42  0  0  1  0  0  0  0  0999 V2000
   17.7460   32.8310  -20.3960 N   0  0  0  0  0  4  0  0  0  0  0  0
   16.4040   33.1960  -20.4810 C   0  0  0  0  0  0  0  0  0  0  0  0
   15.5410   32.9240  -19.4220 N   0  0  0  0  0  4  0  0  0  0  0  0
   14.2000   33.2890  -19.5080 C   0  0  0  0  0  0  0  0  0  0  0  0
   13.7210   33.9250  -20.6500 N   0  0  0  0  0  0  0  0  0  0  0  0
   14.5860   34.1970  -21.7090 C   0  0  0  0  0  3  0  0  0  0  0  0
   15.9100   33.8540  -21.6630 C   0  0  0  0  0  0  0  0  0  0  0  0
   16.8030   34.1340  -22.7570 C   0  0  0  0  0  3  0  0  0  0  0  0
   18.1910   33.7580  -22.6690 C   0  0  0  0  0  3  0  0  0  0  0  0
   18.2240   32.1940  -19.2530 C   0  0  0  0  0  2  0  0  0  0  0  0
   19.4480   31.8620  -19.1750 O   0  0  0  0  0  0  0  0  0  0  0  0
   13.2880   33.0030  -18.3910 N   0  0  0  0  0  4  0  0  0  0  0  0
   12.3050   33.2700  -18.4520 H   0  0  0  0  0  0  0  0  0  0  0  0
   18.7120   33.0630  -21.4220 C   0  0  1  0  0  3  0  0  0  0  0  0
   19.7330   33.6890  -20.6220 C   0  0  0  0  0  3  0  0  0  0  0  0
   20.2600   34.9730  -21.0040 C   0  0  0  0  0  3  0  0  0  0  0  0
   21.2820   35.5990  -20.2040 C   0  0  1  0  0  3  0  0  0  0  0  0
   21.8090   36.8840  -20.5860 C   0  0  0  0  0  1  0  0  0  0  0  0
   18.1850   31.7780  -21.0400 C   0  0  0  0  0  2  0  0  0  0  0  0
   20.3430   32.8750  -19.1610 Cl  0  0  0  0  0  0  0  0  0  0  0  0
   21.8020   34.9040  -18.9560 C   0  0  0  0  0  0  0  0  0  0  0  0
   21.2100   35.1860  -17.6740 C   0  0  0  0  0  3  0  0  0  0  0  0
   20.1590   36.0950  -17.5770 N   0  0  0  0  0  0  0  0  0  0  0  0
   19.6820   36.7320  -18.7210 C   0  0  0  0  0  1  0  0  0  0  0  0
   23.0960   33.7840  -19.0750 S   0  0  0  0  0  0  0  0  0  0  0  0
   13.7920   32.3300  -17.1840 C   0  0  0  0  0  0  0  0  0  0  0  0
   14.1730   33.1080  -16.0330 C   0  0  0  0  0  2  0  0  0  0  0  0
   14.0630   34.5440  -16.0660 C   0  0  0  0  0  3  0  0  0  0  0  0
   14.4460   35.3210  -14.9150 C   0  0  0  0  0  0  0  0  0  0  0  0
   14.3350   36.7570  -14.9470 C   0  0  0  0  0  1  0  0  0  0  0  0
   13.9010   30.8950  -17.1520 C   0  0  0  0  0  1  0  0  0  0  0  0
   14.9490   34.6490  -13.7090 N   0  0  0  0  0  0  0  0  0  0  0  0
   14.0140   33.9620  -12.8060 C   0  0  0  0  0  2  0  0  0  0  0  0
   12.9980   34.9590  -12.2740 C   0  0  0  0  0  2  0  0  0  0  0  0
   12.2530   35.5450  -13.3970 N   0  0  0  0  0  4  0  0  0  0  0  0
   11.5550   34.4800  -14.1330 C   0  0  0  0  0  1  0  0  0  0  0  0
   16.3870   34.6650  -13.4050 C   0  0  0  0  0  1  0  0  0  0  0  0
   11.2700   36.5100  -12.8830 C   0  0  0  0  0  1  0  0  0  0  0  0
   12.9010   36.0230  -14.0230 H   0  0  0  0  0  0  0  0  0  0  0  0
   18.7300   31.9080  -22.4310 C   0  0  0  0  0  1  0  0  0  0  0  0
   18.6580   33.1180  -21.5130 C   0  0  0  0  0  2  0  0  0  0  0  0
  1 10  1  0  0  0  0
  2  1  1  0  0  0  0
  2  3  2  0  0  0  0
  4  3  2  0  0  0  0
  4 12  1  0  0  0  0
  5  4  2  0  0  0  0
  6  7  2  0  0  0  0
  6  5  1  0  0  0  0
  7  2  1  0  0  0  0
  8  9  2  0  0  0  0
  8  7  1  0  0  0  0
  9 41  1  0  0  0  0
 10 11  1  0  0  0  0
 11 20  1  0  0  0  0
 12 26  2  0  0  0  0
 13 12  1  0  0  0  0
 14 19  1  0  0  0  0
 14 15  1  1  0  0  0
 14  1  1  0  0  0  0
 16 15  2  0  0  0  0
 16 17  1  0  0  0  0
 17 18  1  1  0  0  0
 17 21  1  0  0  0  0
 19  1  1  0  0  0  0
 21 22  1  0  0  0  0
 22 23  2  0  0  0  0
 24 23  1  0  0  0  0
 25 21  2  0  0  0  0
 26 31  1  0  0  0  0
 26 27  1  0  0  0  0
 28 27  1  0  0  0  0
 28 29  2  0  0  0  0
 29 32  1  0  0  0  0
 30 29  1  0  0  0  0
 32 37  1  0  0  0  0
 32 33  1  0  0  0  0
 33 34  1  0  0  0  0
 35 38  1  0  0  0  0
 35 34  1  0  0  0  0
 36 35  1  0  0  0  0
 39 35  1  0  0  0  0
 40 41  1  0  0  0  0
M  END
>  <minimizedAffinity>
-8.48584938

$$$$

 OpenBabel07312502283D

 41 43  0  0  1  0  0  0  0  0999 V2000
   14.1510   32.4550  -17.3950 N   0  0  0  0  0  4  0  0  0  0  0  0
   14.9530   33.2510  -16.5800 C   0  0  0  0  0  0  0  0  0  0  0  0
   16.2380   33.5970  -16.9930 N   0  0  0  0  0  4  0  0  0  0  0  0
   17.0400   34.3910  -16.1780 C   0  0  0  0  0  0  0  0  0  0  0  0
   16.5590   34.8410  -14.9510 N   0  0  0  0  0  0  0  0  0  0  0  0
   15.2740   34.4940  -14.5380 C   0  0  0  0  0  3  0  0  0  0  0  0
   14.4550   33.7150  -15.3110 C   0  0  0  0  0  0  0  0  0  0  0  0
   13.1270   33.3570  -14.8840 C   0  0  0  0  0  3  0  0  0  0  0  0
   12.2970   32.5350  -15.7270 C   0  0  0  0  0  3  0  0  0  0  0  0
   14.6320   32.0070  -18.6220 C   0  0  0  0  0  2  0  0  0  0  0  0
   13.9010   31.2820  -19.3660 O   0  0  0  0  0  0  0  0  0  0  0  0
   18.3960   34.7570  -16.6130 N   0  0  0  0  0  4  0  0  0  0  0  0
   18.9840   35.3390  -16.0170 H   0  0  0  0  0  0  0  0  0  0  0  0
   12.8230   32.0450  -17.0660 C   0  0  1  0  0  3  0  0  0  0  0  0
   12.2810   32.5750  -18.2910 C   0  0  0  0  0  3  0  0  0  0  0  0
   11.2410   33.5690  -18.2470 C   0  0  0  0  0  3  0  0  0  0  0  0
   10.6980   34.0990  -19.4710 C   0  0  1  0  0  3  0  0  0  0  0  0
    9.6570   35.0930  -19.4270 C   0  0  0  0  0  1  0  0  0  0  0  0
   13.8640   31.0500  -17.1100 C   0  0  2  0  0  3  0  0  0  0  0  0
   12.8980   32.0010  -19.8590 Cl  0  0  0  0  0  0  0  0  0  0  0  0
   11.2250   33.6090  -20.8110 C   0  0  0  0  0  0  0  0  0  0  0  0
   12.3160   34.2970  -21.4510 C   0  0  0  0  0  3  0  0  0  0  0  0
   12.8890   35.4110  -20.8430 N   0  0  0  0  0  0  0  0  0  0  0  0
   12.4070   35.8600  -19.6160 C   0  0  0  0  0  1  0  0  0  0  0  0
   10.5190   32.2360  -21.5590 S   0  0  0  0  0  0  0  0  0  0  0  0
   18.9050   34.2830  -17.9090 C   0  0  0  0  0  0  0  0  0  0  0  0
   19.6120   35.1870  -18.7780 C   0  0  0  0  0  3  0  0  0  0  0  0
   19.8190   36.5560  -18.3800 C   0  0  0  0  0  3  0  0  0  0  0  0
   20.5250   37.4600  -19.2500 C   0  0  1  0  0  3  0  0  0  0  0  0
   20.7320   38.8290  -18.8510 C   0  0  0  0  0  1  0  0  0  0  0  0
   18.6990   32.9150  -18.3070 C   0  0  0  0  0  1  0  0  0  0  0  0
   21.0350   36.9870  -20.5450 N   0  0  0  0  0  0  0  0  0  0  0  0
   22.2670   36.1870  -20.6020 C   0  0  0  0  0  2  0  0  0  0  0  0
   23.4200   36.9910  -20.0250 C   0  0  0  0  0  2  0  0  0  0  0  0
   23.1250   37.3380  -18.6280 N   0  0  0  0  0  4  0  0  0  0  0  0
   22.9480   36.1070  -17.8440 C   0  0  0  0  0  1  0  0  0  0  0  0
   20.3120   37.3120  -21.7830 C   0  0  0  0  0  1  0  0  0  0  0  0
   24.2410   38.1170  -18.0700 C   0  0  0  0  0  1  0  0  0  0  0  0
   22.2710   37.8940  -18.5880 H   0  0  0  0  0  0  0  0  0  0  0  0
   12.8190   30.7030  -16.3390 C   0  0  0  0  0  2  0  0  0  0  0  0
   12.7950   32.0900  -16.9600 C   0  0  0  0  0  2  0  0  0  0  0  0
  1 19  1  0  0  0  0
  1 14  1  0  0  0  0
  1  2  1  0  0  0  0
  2  7  1  0  0  0  0
  3  2  2  0  0  0  0
  3  4  2  0  0  0  0
  4  5  2  0  0  0  0
  5  6  1  0  0  0  0
  7  8  1  0  0  0  0
  7  6  2  0  0  0  0
  9  8  2  0  0  0  0
 10  1  1  0  0  0  0
 11 10  1  0  0  0  0
 12  4  1  0  0  0  0
 12 13  1  0  0  0  0
 14 15  1  6  0  0  0
 15 16  2  0  0  0  0
 17 18  1  1  0  0  0
 17 16  1  0  0  0  0
 19 14  1  0  0  0  0
 19 40  1  1  0  0  0
 20 11  1  0  0  0  0
 21 17  1  0  0  0  0
 22 23  2  0  0  0  0
 22 21  1  0  0  0  0
 23 24  1  0  0  0  0
 25 21  2  0  0  0  0
 26 12  2  0  0  0  0
 27 28  2  0  0  0  0
 27 26  1  0  0  0  0
 29 30  1  1  0  0  0
 29 28  1  0  0  0  0
 31 26  1  0  0  0  0
 32 29  1  0  0  0  0
 33 32  1  0  0  0  0
 33 34  1  0  0  0  0
 34 35  1  0  0  0  0
 35 39  1  0  0  0  0
 35 38  1  0  0  0  0
 35 36  1  0  0  0  0
 37 32  1  0  0  0  0
 41 40  1  0  0  0  0
 41  9  1  0  0  0  0
M  END
>  <minimizedAffinity>
-8.35066223

$$$$

 OpenBabel07312502283D

 41 43  0  0  1  0  0  0  0  0999 V2000
   14.1040   32.7830  -17.1250 N   0  0  0  0  0  4  0  0  0  0  0  0
   14.9590   33.5450  -16.3310 C   0  0  0  0  0  0  0  0  0  0  0  0
   16.2480   33.8340  -16.7760 N   0  0  0  0  0  4  0  0  0  0  0  0
   17.1030   34.5940  -15.9830 C   0  0  0  0  0  0  0  0  0  0  0  0
   16.6720   35.0660  -14.7450 N   0  0  0  0  0  0  0  0  0  0  0  0
   15.3830   34.7760  -14.3010 C   0  0  0  0  0  3  0  0  0  0  0  0
   14.5120   34.0320  -15.0510 C   0  0  0  0  0  0  0  0  0  0  0  0
   13.1810   33.7320  -14.5920 C   0  0  0  0  0  3  0  0  0  0  0  0
   12.2960   32.9460  -15.4120 C   0  0  0  0  0  3  0  0  0  0  0  0
   14.5350   32.3120  -18.3620 C   0  0  0  0  0  2  0  0  0  0  0  0
   13.7550   31.6190  -19.0860 O   0  0  0  0  0  0  0  0  0  0  0  0
   18.4620   34.9000  -16.4520 N   0  0  0  0  0  4  0  0  0  0  0  0
   19.0890   35.4570  -15.8710 H   0  0  0  0  0  0  0  0  0  0  0  0
   12.7680   32.4310  -16.7620 C   0  0  1  0  0  3  0  0  0  0  0  0
   12.1340   32.8930  -17.9710 C   0  0  0  0  0  3  0  0  0  0  0  0
   11.0530   33.8410  -17.9000 C   0  0  0  0  0  3  0  0  0  0  0  0
   10.4190   34.3020  -19.1080 C   0  0  1  0  0  3  0  0  0  0  0  0
    9.3370   35.2510  -19.0370 C   0  0  0  0  0  1  0  0  0  0  0  0
   13.8490   31.4820  -16.8340 C   0  0  2  0  0  3  0  0  0  0  0  0
   12.6870   32.2900  -19.5520 Cl  0  0  0  0  0  0  0  0  0  0  0  0
   10.8910   33.7880  -20.4580 C   0  0  0  0  0  0  0  0  0  0  0  0
   10.2600   32.6370  -21.0510 C   0  0  0  0  0  3  0  0  0  0  0  0
    9.2180   31.9950  -20.3880 N   0  0  0  0  0  0  0  0  0  0  0  0
    8.7850   32.4660  -19.1510 C   0  0  0  0  0  1  0  0  0  0  0  0
   12.1760   34.5780  -21.2750 S   0  0  0  0  0  0  0  0  0  0  0  0
   18.9190   34.4030  -17.7580 C   0  0  0  0  0  0  0  0  0  0  0  0
   19.6200   35.2820  -18.6570 C   0  0  0  0  0  3  0  0  0  0  0  0
   19.8730   36.6480  -18.2780 C   0  0  0  0  0  3  0  0  0  0  0  0
   20.5730   37.5270  -19.1780 C   0  0  1  0  0  3  0  0  0  0  0  0
   20.8260   38.8940  -18.7990 C   0  0  0  0  0  1  0  0  0  0  0  0
   18.6670   33.0370  -18.1360 C   0  0  0  0  0  1  0  0  0  0  0  0
   21.0300   37.0300  -20.4840 N   0  0  0  0  0  0  0  0  0  0  0  0
   22.2390   36.1990  -20.5710 C   0  0  0  0  0  2  0  0  0  0  0  0
   23.4300   36.9790  -20.0380 C   0  0  0  0  0  2  0  0  0  0  0  0
   23.1880   37.3450  -18.6360 N   0  0  0  0  0  4  0  0  0  0  0  0
   23.0040   36.1250  -17.8350 C   0  0  0  0  0  1  0  0  0  0  0  0
   20.2780   37.3640  -21.7010 C   0  0  0  0  0  1  0  0  0  0  0  0
   24.3390   38.1000  -18.1200 C   0  0  0  0  0  1  0  0  0  0  0  0
   22.3490   37.9220  -18.5750 H   0  0  0  0  0  0  0  0  0  0  0  0
   12.7340   31.1120  -15.9870 C   0  0  0  0  0  2  0  0  0  0  0  0
   12.7440   32.4780  -16.6550 C   0  0  0  0  0  2  0  0  0  0  0  0
  1 19  1  0  0  0  0
  1 14  1  0  0  0  0
  1  2  1  0  0  0  0
  2  7  1  0  0  0  0
  3  2  2  0  0  0  0
  3  4  2  0  0  0  0
  4  5  2  0  0  0  0
  5  6  1  0  0  0  0
  7  8  1  0  0  0  0
  7  6  2  0  0  0  0
  9  8  2  0  0  0  0
 10  1  1  0  0  0  0
 11 10  1  0  0  0  0
 12  4  1  0  0  0  0
 12 13  1  0  0  0  0
 14 15  1  6  0  0  0
 15 16  2  0  0  0  0
 17 18  1  6  0  0  0
 17 16  1  0  0  0  0
 19 14  1  0  0  0  0
 19 40  1  1  0  0  0
 20 11  1  0  0  0  0
 21 17  1  0  0  0  0
 22 21  1  0  0  0  0
 22 23  2  0  0  0  0
 23 24  1  0  0  0  0
 25 21  2  0  0  0  0
 26 12  2  0  0  0  0
 27 28  2  0  0  0  0
 27 26  1  0  0  0  0
 29 30  1  1  0  0  0
 29 28  1  0  0  0  0
 31 26  1  0  0  0  0
 32 29  1  0  0  0  0
 33 32  1  0  0  0  0
 33 34  1  0  0  0  0
 34 35  1  0  0  0  0
 35 39  1  0  0  0  0
 35 38  1  0  0  0  0
 35 36  1  0  0  0  0
 37 32  1  0  0  0  0
 41 40  1  0  0  0  0
 41  9  1  0  0  0  0
M  END
>  <minimizedAffinity>
-8.29987621

$$$$

 OpenBabel07312502283D

 41 43  0  0  1  0  0  0  0  0999 V2000
   13.9720   33.0180  -17.0090 N   0  0  0  0  0  4  0  0  0  0  0  0
   14.8740   33.8340  -16.3290 C   0  0  0  0  0  0  0  0  0  0  0  0
   16.2050   33.8900  -16.7360 N   0  0  0  0  0  4  0  0  0  0  0  0
   17.1070   34.7050  -16.0570 C   0  0  0  0  0  0  0  0  0  0  0  0
   16.6800   35.4640  -14.9710 N   0  0  0  0  0  0  0  0  0  0  0  0
   15.3480   35.4080  -14.5640 C   0  0  0  0  0  3  0  0  0  0  0  0
   14.4310   34.6190  -15.2060 C   0  0  0  0  0  0  0  0  0  0  0  0
   13.0550   34.5600  -14.7850 C   0  0  0  0  0  3  0  0  0  0  0  0
   12.1220   33.7180  -15.4880 C   0  0  0  0  0  3  0  0  0  0  0  0
   14.4000   32.2600  -18.0950 C   0  0  0  0  0  2  0  0  0  0  0  0
   13.5770   31.5170  -18.7150 O   0  0  0  0  0  0  0  0  0  0  0  0
   18.5110   34.7640  -16.4870 N   0  0  0  0  0  4  0  0  0  0  0  0
   19.1730   35.3610  -15.9900 H   0  0  0  0  0  0  0  0  0  0  0  0
   12.5900   32.8890  -16.6730 C   0  0  1  0  0  3  0  0  0  0  0  0
   12.0600   33.1490  -17.9870 C   0  0  0  0  0  3  0  0  0  0  0  0
   11.0870   34.1930  -18.1780 C   0  0  0  0  0  3  0  0  0  0  0  0
   10.5570   34.4520  -19.4920 C   0  0  2  0  0  3  0  0  0  0  0  0
    9.5830   35.4960  -19.6830 C   0  0  0  0  0  1  0  0  0  0  0  0
   13.5630   31.8450  -16.4820 C   0  0  2  0  0  3  0  0  0  0  0  0
   12.6080   32.1790  -19.3750 Cl  0  0  0  0  0  0  0  0  0  0  0  0
   11.0250   33.6240  -20.6770 C   0  0  0  0  0  0  0  0  0  0  0  0
   12.1350   34.0740  -21.4780 C   0  0  0  0  0  3  0  0  0  0  0  0
   12.7790   35.2690  -21.1650 N   0  0  0  0  0  0  0  0  0  0  0  0
   12.3500   36.0280  -20.0790 C   0  0  0  0  0  1  0  0  0  0  0  0
   10.2310   32.1520  -21.0620 S   0  0  0  0  0  0  0  0  0  0  0  0
   18.9640   33.9630  -17.6330 C   0  0  0  0  0  0  0  0  0  0  0  0
   20.1220   34.3730  -18.3860 C   0  0  0  0  0  3  0  0  0  0  0  0
   20.8340   35.5690  -18.0160 C   0  0  0  0  0  3  0  0  0  0  0  0
   21.9910   35.9800  -18.7690 C   0  0  2  0  0  3  0  0  0  0  0  0
   22.7030   37.1760  -18.3990 C   0  0  0  0  0  1  0  0  0  0  0  0
   18.2520   32.7670  -18.0030 C   0  0  0  0  0  1  0  0  0  0  0  0
   22.4440   35.1790  -19.9150 N   0  0  0  0  0  0  0  0  0  0  0  0
   22.3030   35.7040  -21.2800 C   0  0  0  0  0  2  0  0  0  0  0  0
   20.8340   35.9650  -21.5740 C   0  0  0  0  0  2  0  0  0  0  0  0
   20.3110   36.9470  -20.6140 N   0  0  0  0  0  4  0  0  0  0  0  0
   21.0650   38.2040  -20.7370 C   0  0  0  0  0  1  0  0  0  0  0  0
   23.0400   33.8530  -19.6950 C   0  0  0  0  0  1  0  0  0  0  0  0
   18.8900   37.2000  -20.8970 C   0  0  0  0  0  1  0  0  0  0  0  0
   20.4080   36.5830  -19.6660 H   0  0  0  0  0  0  0  0  0  0  0  0
   12.3990   31.8560  -15.5470 C   0  0  0  0  0  2  0  0  0  0  0  0
   12.5670   32.9590  -16.5790 C   0  0  0  0  0  2  0  0  0  0  0  0
  1 14  1  0  0  0  0
  1 19  1  0  0  0  0
  1  2  1  0  0  0  0
  2  7  1  0  0  0  0
  3  2  2  0  0  0  0
  3  4  2  0  0  0  0
  4  5  2  0  0  0  0
  5  6  1  0  0  0  0
  7  8  1  0  0  0  0
  7  6  2  0  0  0  0
  9  8  2  0  0  0  0
 10  1  1  0  0  0  0
 11 10  1  0  0  0  0
 12  4  1  0  0  0  0
 12 13  1  0  0  0  0
 14 15  1  6  0  0  0
 14 19  1  0  0  0  0
 16 15  2  0  0  0  0
 17 18  1  1  0  0  0
 17 16  1  0  0  0  0
 19 40  1  1  0  0  0
 20 11  1  0  0  0  0
 21 17  1  0  0  0  0
 22 23  2  0  0  0  0
 22 21  1  0  0  0  0
 23 24  1  0  0  0  0
 25 21  2  0  0  0  0
 26 12  2  0  0  0  0
 27 28  2  0  0  0  0
 27 26  1  0  0  0  0
 29 30  1  6  0  0  0
 29 28  1  0  0  0  0
 31 26  1  0  0  0  0
 32 37  1  0  0  0  0
 32 29  1  0  0  0  0
 33 32  1  0  0  0  0
 34 33  1  0  0  0  0
 34 35  1  0  0  0  0
 35 39  1  0  0  0  0
 36 35  1  0  0  0  0
 38 35  1  0  0  0  0
 41 40  1  0  0  0  0
 41  9  1  0  0  0  0
M  END
>  <minimizedAffinity>
-8.10135555

$$$$
