
 OpenBabel07302502303D

 41 42  0  0  1  0  0  0  0  0999 V2000
   16.8760   33.4830  -16.9920 N   0  0  0  0  0  4  0  0  0  0  0  0
   15.5560   33.8720  -16.7730 C   0  0  0  0  0  0  0  0  0  0  0  0
   14.5270   33.2900  -17.5110 N   0  0  0  0  0  4  0  0  0  0  0  0
   13.2080   33.6790  -17.2920 C   0  0  0  0  0  0  0  0  0  0  0  0
   12.9170   34.6490  -16.3370 N   0  0  0  0  0  0  0  0  0  0  0  0
   13.9460   35.2310  -15.5990 C   0  0  0  0  0  3  0  0  0  0  0  0
   15.2550   34.8750  -15.7850 C   0  0  0  0  0  0  0  0  0  0  0  0
   16.3180   35.4770  -15.0230 C   0  0  0  0  0  3  0  0  0  0  0  0
   17.6830   35.0750  -15.2490 C   0  0  0  0  0  3  0  0  0  0  0  0
   17.1660   32.5120  -17.9480 C   0  0  0  0  0  2  0  0  0  0  0  0
   18.3700   32.1580  -18.1470 O   0  0  0  0  0  0  0  0  0  0  0  0
   12.1220   33.0640  -18.0700 N   0  0  0  0  0  4  0  0  0  0  0  0
   11.1560   33.3500  -17.9100 H   0  0  0  0  0  0  0  0  0  0  0  0
   18.0010   34.0160  -16.2920 C   0  0  2  0  0  3  0  0  0  0  0  0
   18.8880   34.3240  -17.3830 C   0  0  0  0  0  3  0  0  0  0  0  0
   19.4760   35.6350  -17.4860 C   0  0  0  0  0  3  0  0  0  0  0  0
   20.3630   35.9420  -18.5780 C   0  0  1  0  0  3  0  0  0  0  0  0
   20.9500   37.2530  -18.6810 C   0  0  0  0  0  1  0  0  0  0  0  0
   17.4140   32.7050  -16.1890 C   0  0  0  0  0  2  0  0  0  0  0  0
   19.2610   33.0830  -18.6050 Cl  0  0  0  0  0  0  0  0  0  0  0  0
   20.6820   34.8830  -19.6210 C   0  0  0  0  0  0  0  0  0  0  0  0
   21.8380   34.0400  -19.4620 C   0  0  0  0  0  3  0  0  0  0  0  0
   22.6650   34.1940  -18.3530 N   0  0  0  0  0  0  0  0  0  0  0  0
   22.3740   35.1640  -17.3960 C   0  0  0  0  0  1  0  0  0  0  0  0
   19.6620   34.6930  -20.9870 S   0  0  0  0  0  0  0  0  0  0  0  0
   12.4290   32.0400  -19.0790 C   0  0  0  0  0  0  0  0  0  0  0  0
   12.6540   32.4240  -20.4490 C   0  0  0  0  0  3  0  0  0  0  0  0
   12.5780   33.8100  -20.8310 C   0  0  0  0  0  3  0  0  0  0  0  0
   12.8030   34.1940  -22.2010 C   0  0  2  0  0  3  0  0  0  0  0  0
   12.7270   35.5810  -22.5820 C   0  0  0  0  0  1  0  0  0  0  0  0
   12.5050   30.6540  -18.6970 C   0  0  0  0  0  1  0  0  0  0  0  0
   13.1090   33.1690  -23.2090 N   0  0  0  0  0  0  0  0  0  0  0  0
   14.4570   32.5860  -23.2780 C   0  0  0  0  0  2  0  0  0  0  0  0
   15.4710   33.6850  -23.5520 C   0  0  0  0  0  2  0  0  0  0  0  0
   15.4210   34.6780  -22.4690 N   0  0  0  0  0  4  0  0  0  0  0  0
   15.7390   34.0260  -21.1910 C   0  0  0  0  0  1  0  0  0  0  0  0
   12.0680   32.7250  -24.1470 C   0  0  0  0  0  1  0  0  0  0  0  0
   16.4010   35.7410  -22.7350 C   0  0  0  0  0  1  0  0  0  0  0  0
   14.4860   35.0830  -22.4210 H   0  0  0  0  0  0  0  0  0  0  0  0
   18.2100   33.2790  -14.9580 C   0  0  0  0  0  1  0  0  0  0  0  0
   17.9610   34.0970  -16.2150 C   0  0  0  0  0  2  0  0  0  0  0  0
  1  2  1  0  0  0  0
  1 14  1  0  0  0  0
  1 19  1  0  0  0  0
  2  7  1  0  0  0  0
  3  4  2  0  0  0  0
  3  2  2  0  0  0  0
  4  5  2  0  0  0  0
  5  6  1  0  0  0  0
  7  6  2  0  0  0  0
  7  8  1  0  0  0  0
  9  8  2  0  0  0  0
 10  1  1  0  0  0  0
 11 10  1  0  0  0  0
 12 13  1  0  0  0  0
 12  4  1  0  0  0  0
 14 15  1  6  0  0  0
 14 19  1  0  0  0  0
 16 15  2  0  0  0  0
 17 18  1  1  0  0  0
 17 16  1  0  0  0  0
 20 11  1  0  0  0  0
 21 22  1  0  0  0  0
 21 17  1  0  0  0  0
 22 23  2  0  0  0  0
 23 24  1  0  0  0  0
 25 21  2  0  0  0  0
 26 31  1  0  0  0  0
 26 12  2  0  0  0  0
 27 26  1  0  0  0  0
 28 27  2  0  0  0  0
 29 30  1  6  0  0  0
 29 28  1  0  0  0  0
 32 29  1  0  0  0  0
 33 32  1  0  0  0  0
 34 33  1  0  0  0  0
 34 35  1  0  0  0  0
 35 39  1  0  0  0  0
 35 36  1  0  0  0  0
 37 32  1  0  0  0  0
 38 35  1  0  0  0  0
 41  9  1  0  0  0  0
 41 40  1  0  0  0  0
M  END
>  <minimizedAffinity>
-8.79611778

$$$$
