
 OpenBabel07302502303D

 41 43  0  0  1  0  0  0  0  0999 V2000
   13.9730   33.0250  -17.0010 N   0  0  0  0  0  4  0  0  0  0  0  0
   14.8730   33.8470  -16.3270 C   0  0  0  0  0  0  0  0  0  0  0  0
   16.2050   33.9010  -16.7310 N   0  0  0  0  0  4  0  0  0  0  0  0
   17.1050   34.7220  -16.0570 C   0  0  0  0  0  0  0  0  0  0  0  0
   16.6740   35.4890  -14.9780 N   0  0  0  0  0  0  0  0  0  0  0  0
   15.3420   35.4360  -14.5730 C   0  0  0  0  0  3  0  0  0  0  0  0
   14.4270   34.6420  -15.2110 C   0  0  0  0  0  0  0  0  0  0  0  0
   13.0500   34.5860  -14.7930 C   0  0  0  0  0  3  0  0  0  0  0  0
   12.1190   33.7370  -15.4900 C   0  0  0  0  0  3  0  0  0  0  0  0
   14.4050   32.2580  -18.0800 C   0  0  0  0  0  2  0  0  0  0  0  0
   13.5830   31.5090  -18.6950 O   0  0  0  0  0  0  0  0  0  0  0  0
   18.5110   34.7780  -16.4840 N   0  0  0  0  0  4  0  0  0  0  0  0
   19.1700   35.3800  -15.9900 H   0  0  0  0  0  0  0  0  0  0  0  0
   12.5900   32.8980  -16.6670 C   0  0  1  0  0  3  0  0  0  0  0  0
   12.0660   33.1500  -17.9850 C   0  0  0  0  0  3  0  0  0  0  0  0
   11.0970   34.1960  -18.1880 C   0  0  0  0  0  3  0  0  0  0  0  0
   10.5740   34.4460  -19.5060 C   0  0  1  0  0  3  0  0  0  0  0  0
    9.6050   35.4920  -19.7090 C   0  0  0  0  0  1  0  0  0  0  0  0
   13.5600   31.8530  -16.4650 C   0  0  2  0  0  3  0  0  0  0  0  0
   12.6190   32.1680  -19.3650 Cl  0  0  0  0  0  0  0  0  0  0  0  0
   11.0450   33.6090  -20.6840 C   0  0  0  0  0  0  0  0  0  0  0  0
   12.1610   34.0500  -21.4810 C   0  0  0  0  0  3  0  0  0  0  0  0
   12.8080   35.2440  -21.1730 N   0  0  0  0  0  0  0  0  0  0  0  0
   12.3770   36.0120  -20.0940 C   0  0  0  0  0  1  0  0  0  0  0  0
   10.2480   32.1380  -21.0620 S   0  0  0  0  0  0  0  0  0  0  0  0
   18.9660   33.9680  -17.6230 C   0  0  0  0  0  0  0  0  0  0  0  0
   20.1240   34.3730  -18.3770 C   0  0  0  0  0  3  0  0  0  0  0  0
   20.8360   35.5720  -18.0160 C   0  0  0  0  0  3  0  0  0  0  0  0
   21.9930   35.9780  -18.7710 C   0  0  1  0  0  3  0  0  0  0  0  0
   22.7050   37.1770  -18.4100 C   0  0  0  0  0  1  0  0  0  0  0  0
   18.2550   32.7690  -17.9840 C   0  0  0  0  0  1  0  0  0  0  0  0
   22.4480   35.1670  -19.9100 N   0  0  0  0  0  0  0  0  0  0  0  0
   22.3100   35.6830  -21.2800 C   0  0  0  0  0  2  0  0  0  0  0  0
   20.8430   35.9430  -21.5780 C   0  0  0  0  0  2  0  0  0  0  0  0
   20.3180   36.9340  -20.6270 N   0  0  0  0  0  4  0  0  0  0  0  0
   21.0750   38.1870  -20.7570 C   0  0  0  0  0  1  0  0  0  0  0  0
   23.0420   33.8430  -19.6800 C   0  0  0  0  0  1  0  0  0  0  0  0
   18.8990   37.1850  -20.9140 C   0  0  0  0  0  1  0  0  0  0  0  0
   20.4140   36.5770  -19.6760 H   0  0  0  0  0  0  0  0  0  0  0  0
   12.3930   31.8580  -15.5510 C   0  0  0  0  0  2  0  0  0  0  0  0
   12.5680   32.9690  -16.5740 C   0  0  0  0  0  2  0  0  0  0  0  0
  1 14  1  0  0  0  0
  1 19  1  0  0  0  0
  1  2  1  0  0  0  0
  2  7  1  0  0  0  0
  3  2  2  0  0  0  0
  3  4  2  0  0  0  0
  4  5  2  0  0  0  0
  5  6  1  0  0  0  0
  7  8  1  0  0  0  0
  7  6  2  0  0  0  0
  9  8  2  0  0  0  0
 10  1  1  0  0  0  0
 11 10  1  0  0  0  0
 12  4  1  0  0  0  0
 12 13  1  0  0  0  0
 14 15  1  6  0  0  0
 14 19  1  0  0  0  0
 16 15  2  0  0  0  0
 17 18  1  6  0  0  0
 17 16  1  0  0  0  0
 19 40  1  1  0  0  0
 20 11  1  0  0  0  0
 21 17  1  0  0  0  0
 22 23  2  0  0  0  0
 22 21  1  0  0  0  0
 23 24  1  0  0  0  0
 25 21  2  0  0  0  0
 26 12  2  0  0  0  0
 27 28  2  0  0  0  0
 27 26  1  0  0  0  0
 29 30  1  1  0  0  0
 29 28  1  0  0  0  0
 31 26  1  0  0  0  0
 32 37  1  0  0  0  0
 32 29  1  0  0  0  0
 33 32  1  0  0  0  0
 34 33  1  0  0  0  0
 34 35  1  0  0  0  0
 35 39  1  0  0  0  0
 36 35  1  0  0  0  0
 38 35  1  0  0  0  0
 41 40  1  0  0  0  0
 41  9  1  0  0  0  0
M  END
>  <minimizedAffinity>
-8.15114403

$$$$
