
 OpenBabel07312502283D

 41 43  0  0  1  0  0  0  0  0999 V2000
   13.3400   33.4570  -17.6990 N   0  0  0  0  0  4  0  0  0  0  0  0
   13.7460   34.0940  -18.8690 C   0  0  0  0  0  0  0  0  0  0  0  0
   15.0590   33.9580  -19.3160 N   0  0  0  0  0  4  0  0  0  0  0  0
   15.4660   34.5950  -20.4850 C   0  0  0  0  0  0  0  0  0  0  0  0
   14.5620   35.3680  -21.2090 N   0  0  0  0  0  0  0  0  0  0  0  0
   13.2490   35.5040  -20.7620 C   0  0  0  0  0  3  0  0  0  0  0  0
   12.8100   34.8940  -19.6170 C   0  0  0  0  0  0  0  0  0  0  0  0
   11.4540   35.0350  -19.1550 C   0  0  0  0  0  3  0  0  0  0  0  0
   11.0330   34.3760  -17.9460 C   0  0  0  0  0  3  0  0  0  0  0  0
   14.2440   32.6840  -16.9760 C   0  0  0  0  0  2  0  0  0  0  0  0
   13.8730   32.1030  -15.9090 O   0  0  0  0  0  0  0  0  0  0  0  0
   16.8500   34.4500  -20.9570 N   0  0  0  0  0  4  0  0  0  0  0  0
   17.1490   34.9170  -21.8140 H   0  0  0  0  0  0  0  0  0  0  0  0
   12.0210   33.5330  -17.1560 C   0  0  2  0  0  3  0  0  0  0  0  0
   12.4090   33.9330  -15.8280 C   0  0  0  0  0  3  0  0  0  0  0  0
   11.8630   35.1330  -15.2490 C   0  0  0  0  0  3  0  0  0  0  0  0
   12.2520   35.5330  -13.9210 C   0  0  2  0  0  3  0  0  0  0  0  0
   11.7060   36.7340  -13.3420 C   0  0  0  0  0  1  0  0  0  0  0  0
   12.5670   32.3330  -17.7350 C   0  0  1  0  0  3  0  0  0  0  0  0
   13.5650   32.9450  -14.9030 Cl  0  0  0  0  0  0  0  0  0  0  0  0
   13.2390   34.6890  -13.1310 C   0  0  0  0  0  0  0  0  0  0  0  0
   12.7590   33.7270  -12.1730 C   0  0  0  0  0  3  0  0  0  0  0  0
   11.3900   33.5700  -11.9710 N   0  0  0  0  0  0  0  0  0  0  0  0
   10.4850   34.3430  -12.6960 C   0  0  0  0  0  1  0  0  0  0  0  0
   14.9250   34.8840  -13.3800 S   0  0  0  0  0  0  0  0  0  0  0  0
   17.8060   33.6350  -20.1940 C   0  0  0  0  0  0  0  0  0  0  0  0
   18.8070   34.2730  -19.3780 C   0  0  0  0  0  3  0  0  0  0  0  0
   18.8710   35.7110  -19.3110 C   0  0  0  0  0  3  0  0  0  0  0  0
   19.8730   36.3490  -18.4960 C   0  0  1  0  0  3  0  0  0  0  0  0
   19.9370   37.7870  -18.4300 C   0  0  0  0  0  1  0  0  0  0  0  0
   17.7410   32.1980  -20.2600 C   0  0  0  0  0  1  0  0  0  0  0  0
   20.8280   35.5340  -17.7330 N   0  0  0  0  0  0  0  0  0  0  0  0
   22.2370   35.4720  -18.1480 C   0  0  0  0  0  2  0  0  0  0  0  0
   22.3250   34.9150  -19.5590 C   0  0  0  0  0  2  0  0  0  0  0  0
   21.5820   35.7880  -20.4780 N   0  0  0  0  0  4  0  0  0  0  0  0
   22.1620   37.1390  -20.4480 C   0  0  0  0  0  1  0  0  0  0  0  0
   20.3750   34.7830  -16.5540 C   0  0  0  0  0  1  0  0  0  0  0  0
   21.6670   35.2490  -21.8430 C   0  0  0  0  0  1  0  0  0  0  0  0
   20.6040   35.8310  -20.1900 H   0  0  0  0  0  0  0  0  0  0  0  0
   11.0920   32.5170  -17.8520 C   0  0  0  0  0  2  0  0  0  0  0  0
   11.9540   33.6020  -17.2270 C   0  0  0  0  0  2  0  0  0  0  0  0
  1 14  1  0  0  0  0
  1 10  1  0  0  0  0
  2  1  1  0  0  0  0
  3  2  2  0  0  0  0
  4  3  2  0  0  0  0
  5  6  1  0  0  0  0
  5  4  2  0  0  0  0
  6  7  2  0  0  0  0
  7  8  1  0  0  0  0
  7  2  1  0  0  0  0
  8  9  2  0  0  0  0
  9 41  1  0  0  0  0
 10 11  1  0  0  0  0
 11 20  1  0  0  0  0
 12  4  1  0  0  0  0
 12 26  2  0  0  0  0
 13 12  1  0  0  0  0
 14 15  1  1  0  0  0
 15 16  2  0  0  0  0
 16 17  1  0  0  0  0
 17 18  1  6  0  0  0
 17 21  1  0  0  0  0
 19 40  1  6  0  0  0
 19  1  1  0  0  0  0
 19 14  1  0  0  0  0
 21 22  1  0  0  0  0
 22 23  2  0  0  0  0
 24 23  1  0  0  0  0
 25 21  2  0  0  0  0
 26 27  1  0  0  0  0
 27 28  2  0  0  0  0
 28 29  1  0  0  0  0
 29 30  1  1  0  0  0
 29 32  1  0  0  0  0
 31 26  1  0  0  0  0
 32 37  1  0  0  0  0
 33 32  1  0  0  0  0
 34 33  1  0  0  0  0
 35 36  1  0  0  0  0
 35 39  1  0  0  0  0
 35 34  1  0  0  0  0
 38 35  1  0  0  0  0
 40 41  1  0  0  0  0
M  END
>  <minimizedAffinity>
-9.12385654

$$$$
