
 OpenBabel07302502303D

 41 42  0  0  1  0  0  0  0  0999 V2000
   16.8880   33.4100  -16.9740 N   0  0  0  0  0  4  0  0  0  0  0  0
   15.5910   33.6900  -16.5480 C   0  0  0  0  0  0  0  0  0  0  0  0
   14.5020   33.1640  -17.2410 N   0  0  0  0  0  4  0  0  0  0  0  0
   13.2060   33.4450  -16.8160 C   0  0  0  0  0  0  0  0  0  0  0  0
   12.9980   34.2490  -15.6990 N   0  0  0  0  0  0  0  0  0  0  0  0
   14.0860   34.7740  -15.0060 C   0  0  0  0  0  3  0  0  0  0  0  0
   15.3750   34.5210  -15.3930 C   0  0  0  0  0  0  0  0  0  0  0  0
   16.5010   35.0640  -14.6760 C   0  0  0  0  0  3  0  0  0  0  0  0
   17.8420   34.7750  -15.1160 C   0  0  0  0  0  3  0  0  0  0  0  0
   17.0950   32.6040  -18.0920 C   0  0  0  0  0  2  0  0  0  0  0  0
   18.2780   32.3490  -18.4790 O   0  0  0  0  0  0  0  0  0  0  0  0
   12.0570   32.8900  -17.5470 N   0  0  0  0  0  4  0  0  0  0  0  0
   11.1070   33.0960  -17.2360 H   0  0  0  0  0  0  0  0  0  0  0  0
   18.0690   33.8970  -16.3360 C   0  0  2  0  0  3  0  0  0  0  0  0
   18.7590   34.4250  -17.4850 C   0  0  0  0  0  3  0  0  0  0  0  0
   19.2330   35.7840  -17.4780 C   0  0  0  0  0  3  0  0  0  0  0  0
   19.9240   36.3110  -18.6270 C   0  0  2  0  0  3  0  0  0  0  0  0
   20.3980   37.6710  -18.6200 C   0  0  0  0  0  1  0  0  0  0  0  0
   17.5940   32.5370  -16.3430 C   0  0  0  0  0  2  0  0  0  0  0  0
   19.0250   33.3960  -18.9130 Cl  0  0  0  0  0  0  0  0  0  0  0  0
   20.1510   35.4330  -19.8460 C   0  0  0  0  0  0  0  0  0  0  0  0
   21.3640   34.6650  -19.9650 C   0  0  0  0  0  3  0  0  0  0  0  0
   22.3280   34.7270  -18.9630 N   0  0  0  0  0  0  0  0  0  0  0  0
   22.1200   35.5310  -17.8440 C   0  0  0  0  0  1  0  0  0  0  0  0
   18.9630   35.3580  -21.0810 S   0  0  0  0  0  0  0  0  0  0  0  0
   12.2760   32.0410  -18.7260 C   0  0  0  0  0  0  0  0  0  0  0  0
   12.1380   32.5950  -20.0480 C   0  0  0  0  0  2  0  0  0  0  0  0
   11.7840   33.9820  -20.2150 C   0  0  0  0  0  3  0  0  0  0  0  0
   11.6460   34.5360  -21.5370 C   0  0  0  0  0  0  0  0  0  0  0  0
   11.2930   35.9220  -21.7030 C   0  0  0  0  0  1  0  0  0  0  0  0
   12.6290   30.6550  -18.5600 C   0  0  0  0  0  1  0  0  0  0  0  0
   11.8650   33.6860  -22.7160 N   0  0  0  0  0  0  0  0  0  0  0  0
   10.7280   33.3020  -23.5660 C   0  0  0  0  0  2  0  0  0  0  0  0
    9.7160   32.5270  -22.7390 C   0  0  0  0  0  2  0  0  0  0  0  0
    9.2380   33.3720  -21.6340 N   0  0  0  0  0  4  0  0  0  0  0  0
    8.6030   34.5800  -22.1790 C   0  0  0  0  0  1  0  0  0  0  0  0
   13.2200   33.2210  -23.0470 C   0  0  0  0  0  1  0  0  0  0  0  0
    8.2590   32.6230  -20.8330 C   0  0  0  0  0  1  0  0  0  0  0  0
   10.0260   33.6380  -21.0440 H   0  0  0  0  0  0  0  0  0  0  0  0
   18.3460   33.0830  -15.0440 C   0  0  0  0  0  1  0  0  0  0  0  0
   18.0360   33.9630  -16.2430 C   0  0  0  0  0  2  0  0  0  0  0  0
  1  2  1  0  0  0  0
  1 19  1  0  0  0  0
  1 14  1  0  0  0  0
  2  7  1  0  0  0  0
  3  4  2  0  0  0  0
  3  2  2  0  0  0  0
  4  5  2  0  0  0  0
  5  6  1  0  0  0  0
  7  6  2  0  0  0  0
  7  8  1  0  0  0  0
  9  8  2  0  0  0  0
 10  1  1  0  0  0  0
 11 10  1  0  0  0  0
 12 13  1  0  0  0  0
 12  4  1  0  0  0  0
 14 15  1  6  0  0  0
 15 16  2  0  0  0  0
 17 18  1  6  0  0  0
 17 16  1  0  0  0  0
 19 14  1  0  0  0  0
 20 11  1  0  0  0  0
 21 17  1  0  0  0  0
 22 21  1  0  0  0  0
 22 23  2  0  0  0  0
 23 24  1  0  0  0  0
 25 21  2  0  0  0  0
 26 31  1  0  0  0  0
 26 12  2  0  0  0  0
 27 26  1  0  0  0  0
 28 27  1  0  0  0  0
 29 28  2  0  0  0  0
 30 29  1  0  0  0  0
 32 29  1  0  0  0  0
 33 34  1  0  0  0  0
 33 32  1  0  0  0  0
 34 35  1  0  0  0  0
 35 39  1  0  0  0  0
 35 38  1  0  0  0  0
 36 35  1  0  0  0  0
 37 32  1  0  0  0  0
 41  9  1  0  0  0  0
 41 40  1  0  0  0  0
M  END
>  <minimizedAffinity>
-8.5211525

$$$$
