
 OpenBabel07312502283D

 41 43  0  0  1  0  0  0  0  0999 V2000
   16.3730   32.6010  -19.8230 N   0  0  0  0  0  4  0  0  0  0  0  0
   15.0040   32.8610  -19.8470 C   0  0  0  0  0  0  0  0  0  0  0  0
   14.2250   32.5950  -18.7230 N   0  0  0  0  0  4  0  0  0  0  0  0
   12.8580   32.8560  -18.7470 C   0  0  0  0  0  0  0  0  0  0  0  0
   12.2670   33.3810  -19.8940 N   0  0  0  0  0  0  0  0  0  0  0  0
   13.0470   33.6470  -21.0180 C   0  0  0  0  0  3  0  0  0  0  0  0
   14.3950   33.4050  -21.0340 C   0  0  0  0  0  0  0  0  0  0  0  0
   15.2000   33.6790  -22.1950 C   0  0  0  0  0  3  0  0  0  0  0  0
   16.6150   33.4110  -22.1700 C   0  0  0  0  0  3  0  0  0  0  0  0
   16.9620   32.0760  -18.6760 C   0  0  0  0  0  2  0  0  0  0  0  0
   18.2100   31.8390  -18.6530 O   0  0  0  0  0  0  0  0  0  0  0  0
   12.0350   32.5760  -17.5620 N   0  0  0  0  0  4  0  0  0  0  0  0
   11.0330   32.7660  -17.5780 H   0  0  0  0  0  0  0  0  0  0  0  0
   17.2580   32.8370  -20.9190 C   0  0  1  0  0  3  0  0  0  0  0  0
   18.2290   33.6100  -20.1880 C   0  0  0  0  0  2  0  0  0  0  0  0
   18.5920   34.9270  -20.6440 C   0  0  0  0  0  3  0  0  0  0  0  0
   19.5630   35.7000  -19.9140 C   0  0  0  0  0  0  0  0  0  0  0  0
   19.9260   37.0170  -20.3710 C   0  0  0  0  0  1  0  0  0  0  0  0
   16.8960   31.5200  -20.4620 C   0  0  2  0  0  3  0  0  0  0  0  0
   18.9820   32.9380  -18.7210 Cl  0  0  0  0  0  0  0  0  0  0  0  0
   20.2050   35.1260  -18.6620 C   0  0  0  0  0  0  0  0  0  0  0  0
   21.4510   34.4100  -18.7550 C   0  0  0  0  0  3  0  0  0  0  0  0
   22.0680   34.2430  -19.9920 N   0  0  0  0  0  0  0  0  0  0  0  0
   21.4800   34.7690  -21.1400 C   0  0  0  0  0  1  0  0  0  0  0  0
   19.4460   35.3320  -17.1370 S   0  0  0  0  0  0  0  0  0  0  0  0
   12.6570   32.0210  -16.3500 C   0  0  0  0  0  0  0  0  0  0  0  0
   12.8080   32.8430  -15.1770 C   0  0  0  0  0  2  0  0  0  0  0  0
   12.3520   34.2090  -15.1930 C   0  0  0  0  0  3  0  0  0  0  0  0
   12.5050   35.0320  -14.0200 C   0  0  0  0  0  0  0  0  0  0  0  0
   12.0490   36.3980  -14.0350 C   0  0  0  0  0  1  0  0  0  0  0  0
   13.1120   30.6550  -16.3350 C   0  0  0  0  0  1  0  0  0  0  0  0
   13.1250   34.4770  -12.8090 N   0  0  0  0  0  0  0  0  0  0  0  0
   14.5040   34.8430  -12.4570 C   0  0  0  0  0  2  0  0  0  0  0  0
   15.4420   34.4200  -13.5750 C   0  0  0  0  0  2  0  0  0  0  0  0
   15.0580   35.1000  -14.8200 N   0  0  0  0  0  4  0  0  0  0  0  0
   15.1470   36.5550  -14.6310 C   0  0  0  0  0  1  0  0  0  0  0  0
   12.3660   33.5580  -11.9490 C   0  0  0  0  0  1  0  0  0  0  0  0
   15.9640   34.6910  -15.9030 C   0  0  0  0  0  1  0  0  0  0  0  0
   14.1010   34.8460  -15.0650 H   0  0  0  0  0  0  0  0  0  0  0  0
   17.3430   31.6130  -21.8340 C   0  0  0  0  0  2  0  0  0  0  0  0
   17.1950   32.8820  -21.0090 C   0  0  0  0  0  2  0  0  0  0  0  0
  1 10  1  0  0  0  0
  2  1  1  0  0  0  0
  2  3  2  0  0  0  0
  4  3  2  0  0  0  0
  4 12  1  0  0  0  0
  5  4  2  0  0  0  0
  6  5  1  0  0  0  0
  7  6  2  0  0  0  0
  7  2  1  0  0  0  0
  8  9  2  0  0  0  0
  8  7  1  0  0  0  0
  9 41  1  0  0  0  0
 10 11  1  0  0  0  0
 12 26  2  0  0  0  0
 13 12  1  0  0  0  0
 14 19  1  0  0  0  0
 14 15  1  1  0  0  0
 14  1  1  0  0  0  0
 16 15  1  0  0  0  0
 16 17  2  0  0  0  0
 17 21  1  0  0  0  0
 18 17  1  0  0  0  0
 19 40  1  6  0  0  0
 19  1  1  0  0  0  0
 20 11  1  0  0  0  0
 21 25  2  0  0  0  0
 22 21  1  0  0  0  0
 23 22  2  0  0  0  0
 24 23  1  0  0  0  0
 26 31  1  0  0  0  0
 26 27  1  0  0  0  0
 28 27  1  0  0  0  0
 28 29  2  0  0  0  0
 29 32  1  0  0  0  0
 30 29  1  0  0  0  0
 32 33  1  0  0  0  0
 32 37  1  0  0  0  0
 34 33  1  0  0  0  0
 35 36  1  0  0  0  0
 35 34  1  0  0  0  0
 38 35  1  0  0  0  0
 39 35  1  0  0  0  0
 40 41  1  0  0  0  0
M  END
>  <minimizedAffinity>
-8.48780441

$$$$
