
 OpenBabel07312502283D

 41 43  0  0  1  0  0  0  0  0999 V2000
   14.1510   32.4550  -17.3950 N   0  0  0  0  0  4  0  0  0  0  0  0
   14.9530   33.2510  -16.5800 C   0  0  0  0  0  0  0  0  0  0  0  0
   16.2380   33.5970  -16.9930 N   0  0  0  0  0  4  0  0  0  0  0  0
   17.0400   34.3910  -16.1780 C   0  0  0  0  0  0  0  0  0  0  0  0
   16.5590   34.8410  -14.9510 N   0  0  0  0  0  0  0  0  0  0  0  0
   15.2740   34.4940  -14.5380 C   0  0  0  0  0  3  0  0  0  0  0  0
   14.4550   33.7150  -15.3110 C   0  0  0  0  0  0  0  0  0  0  0  0
   13.1270   33.3570  -14.8840 C   0  0  0  0  0  3  0  0  0  0  0  0
   12.2970   32.5350  -15.7270 C   0  0  0  0  0  3  0  0  0  0  0  0
   14.6320   32.0070  -18.6220 C   0  0  0  0  0  2  0  0  0  0  0  0
   13.9010   31.2820  -19.3660 O   0  0  0  0  0  0  0  0  0  0  0  0
   18.3960   34.7570  -16.6130 N   0  0  0  0  0  4  0  0  0  0  0  0
   18.9840   35.3390  -16.0170 H   0  0  0  0  0  0  0  0  0  0  0  0
   12.8230   32.0450  -17.0660 C   0  0  1  0  0  3  0  0  0  0  0  0
   12.2810   32.5750  -18.2910 C   0  0  0  0  0  3  0  0  0  0  0  0
   11.2410   33.5690  -18.2470 C   0  0  0  0  0  3  0  0  0  0  0  0
   10.6980   34.0990  -19.4710 C   0  0  1  0  0  3  0  0  0  0  0  0
    9.6570   35.0930  -19.4270 C   0  0  0  0  0  1  0  0  0  0  0  0
   13.8640   31.0500  -17.1100 C   0  0  2  0  0  3  0  0  0  0  0  0
   12.8980   32.0010  -19.8590 Cl  0  0  0  0  0  0  0  0  0  0  0  0
   11.2250   33.6090  -20.8110 C   0  0  0  0  0  0  0  0  0  0  0  0
   12.3160   34.2970  -21.4510 C   0  0  0  0  0  3  0  0  0  0  0  0
   12.8890   35.4110  -20.8430 N   0  0  0  0  0  0  0  0  0  0  0  0
   12.4070   35.8600  -19.6160 C   0  0  0  0  0  1  0  0  0  0  0  0
   10.5190   32.2360  -21.5590 S   0  0  0  0  0  0  0  0  0  0  0  0
   18.9050   34.2830  -17.9090 C   0  0  0  0  0  0  0  0  0  0  0  0
   19.6120   35.1870  -18.7780 C   0  0  0  0  0  3  0  0  0  0  0  0
   19.8190   36.5560  -18.3800 C   0  0  0  0  0  3  0  0  0  0  0  0
   20.5250   37.4600  -19.2500 C   0  0  1  0  0  3  0  0  0  0  0  0
   20.7320   38.8290  -18.8510 C   0  0  0  0  0  1  0  0  0  0  0  0
   18.6990   32.9150  -18.3070 C   0  0  0  0  0  1  0  0  0  0  0  0
   21.0350   36.9870  -20.5450 N   0  0  0  0  0  0  0  0  0  0  0  0
   22.2670   36.1870  -20.6020 C   0  0  0  0  0  2  0  0  0  0  0  0
   23.4200   36.9910  -20.0250 C   0  0  0  0  0  2  0  0  0  0  0  0
   23.1250   37.3380  -18.6280 N   0  0  0  0  0  4  0  0  0  0  0  0
   22.9480   36.1070  -17.8440 C   0  0  0  0  0  1  0  0  0  0  0  0
   20.3120   37.3120  -21.7830 C   0  0  0  0  0  1  0  0  0  0  0  0
   24.2410   38.1170  -18.0700 C   0  0  0  0  0  1  0  0  0  0  0  0
   22.2710   37.8940  -18.5880 H   0  0  0  0  0  0  0  0  0  0  0  0
   12.8190   30.7030  -16.3390 C   0  0  0  0  0  2  0  0  0  0  0  0
   12.7950   32.0900  -16.9600 C   0  0  0  0  0  2  0  0  0  0  0  0
  1 19  1  0  0  0  0
  1 14  1  0  0  0  0
  1  2  1  0  0  0  0
  2  7  1  0  0  0  0
  3  2  2  0  0  0  0
  3  4  2  0  0  0  0
  4  5  2  0  0  0  0
  5  6  1  0  0  0  0
  7  8  1  0  0  0  0
  7  6  2  0  0  0  0
  9  8  2  0  0  0  0
 10  1  1  0  0  0  0
 11 10  1  0  0  0  0
 12  4  1  0  0  0  0
 12 13  1  0  0  0  0
 14 15  1  6  0  0  0
 15 16  2  0  0  0  0
 17 18  1  1  0  0  0
 17 16  1  0  0  0  0
 19 14  1  0  0  0  0
 19 40  1  1  0  0  0
 20 11  1  0  0  0  0
 21 17  1  0  0  0  0
 22 23  2  0  0  0  0
 22 21  1  0  0  0  0
 23 24  1  0  0  0  0
 25 21  2  0  0  0  0
 26 12  2  0  0  0  0
 27 28  2  0  0  0  0
 27 26  1  0  0  0  0
 29 30  1  1  0  0  0
 29 28  1  0  0  0  0
 31 26  1  0  0  0  0
 32 29  1  0  0  0  0
 33 32  1  0  0  0  0
 33 34  1  0  0  0  0
 34 35  1  0  0  0  0
 35 39  1  0  0  0  0
 35 38  1  0  0  0  0
 35 36  1  0  0  0  0
 37 32  1  0  0  0  0
 41 40  1  0  0  0  0
 41  9  1  0  0  0  0
M  END
>  <minimizedAffinity>
-8.35066223

$$$$
