
 OpenBabel07302502303D

 41 42  0  0  1  0  0  0  0  0999 V2000
   13.3850   34.2150  -18.5140 N   0  0  0  0  0  0  0  0  0  0  0  0
   14.1510   33.0530  -18.4430 C   0  0  0  0  0  0  0  0  0  0  0  0
   15.2860   32.9170  -19.2390 N   0  0  0  0  0  4  0  0  0  0  0  0
   16.0510   31.7550  -19.1690 C   0  0  0  0  0  0  0  0  0  0  0  0
   15.6810   30.7300  -18.3030 N   0  0  0  0  0  0  0  0  0  0  0  0
   14.5460   30.8650  -17.5060 C   0  0  0  0  0  3  0  0  0  0  0  0
   13.7690   31.9920  -17.5470 C   0  0  0  0  0  0  0  0  0  0  0  0
   12.5950   32.1320  -16.7240 C   0  0  0  0  0  3  0  0  0  0  0  0
   11.8040   33.3330  -16.7970 C   0  0  0  0  0  3  0  0  0  0  0  0
   13.7560   35.2410  -19.3810 C   0  0  0  0  0  2  0  0  0  0  0  0
   13.0580   36.3010  -19.4440 O   0  0  0  0  0  0  0  0  0  0  0  0
   17.2490   31.6120  -20.0090 N   0  0  0  0  0  4  0  0  0  0  0  0
   17.8090   30.7610  -19.9570 H   0  0  0  0  0  0  0  0  0  0  0  0
   12.2070   34.4530  -17.7430 C   0  0  2  0  0  3  0  0  0  0  0  0
   11.4780   34.6590  -18.9680 C   0  0  0  0  0  3  0  0  0  0  0  0
   10.3660   33.8050  -19.2960 C   0  0  0  0  0  3  0  0  0  0  0  0
    9.6370   34.0120  -20.5210 C   0  0  1  0  0  3  0  0  0  0  0  0
    8.5250   33.1580  -20.8490 C   0  0  0  0  0  1  0  0  0  0  0  0
   13.3190   35.3080  -17.4150 C   0  0  0  0  0  2  0  0  0  0  0  0
   11.9500   35.9710  -20.0750 Cl  0  0  0  0  0  0  0  0  0  0  0  0
   10.0400   35.1310  -21.4660 C   0  0  0  0  0  0  0  0  0  0  0  0
   10.9570   34.8680  -22.5450 C   0  0  0  0  0  3  0  0  0  0  0  0
   11.4760   33.5880  -22.7210 N   0  0  0  0  0  0  0  0  0  0  0  0
   11.1070   32.5610  -21.8550 C   0  0  0  0  0  1  0  0  0  0  0  0
    9.4010   36.7080  -21.2480 S   0  0  0  0  0  0  0  0  0  0  0  0
   17.6400   32.6950  -20.9230 C   0  0  0  0  0  0  0  0  0  0  0  0
   18.3930   33.8190  -20.4280 C   0  0  0  0  0  2  0  0  0  0  0  0
   18.7630   33.8810  -19.0380 C   0  0  0  0  0  3  0  0  0  0  0  0
   19.5170   35.0050  -18.5430 C   0  0  0  0  0  0  0  0  0  0  0  0
   19.8870   35.0670  -17.1520 C   0  0  0  0  0  1  0  0  0  0  0  0
   17.2690   32.6320  -22.3130 C   0  0  0  0  0  1  0  0  0  0  0  0
   19.9070   36.0880  -19.4580 N   0  0  0  0  0  0  0  0  0  0  0  0
   21.0700   35.9200  -20.3400 C   0  0  0  0  0  2  0  0  0  0  0  0
   22.3140   35.6850  -19.5000 C   0  0  0  0  0  2  0  0  0  0  0  0
   22.1350   34.4710  -18.6890 N   0  0  0  0  0  4  0  0  0  0  0  0
   21.9170   33.3180  -19.5750 C   0  0  0  0  0  1  0  0  0  0  0  0
   19.1320   37.3360  -19.4910 C   0  0  0  0  0  1  0  0  0  0  0  0
   23.3380   34.2430  -17.8760 C   0  0  0  0  0  1  0  0  0  0  0  0
   21.3280   34.5870  -18.0770 H   0  0  0  0  0  0  0  0  0  0  0  0
   12.5690   35.0070  -16.3540 C   0  0  0  0  0  2  0  0  0  0  0  0
   12.1880   34.3580  -17.6750 C   0  0  0  0  0  2  0  0  0  0  0  0
  1  2  1  0  0  0  0
  1 14  1  0  0  0  0
  2  7  1  0  0  0  0
  3  4  2  0  0  0  0
  3  2  2  0  0  0  0
  4  5  2  0  0  0  0
  5  6  1  0  0  0  0
  7  6  2  0  0  0  0
  7  8  1  0  0  0  0
  9  8  2  0  0  0  0
 10  1  1  0  0  0  0
 11 10  1  0  0  0  0
 12 13  1  0  0  0  0
 12  4  1  0  0  0  0
 14 15  1  6  0  0  0
 14 19  1  0  0  0  0
 16 15  2  0  0  0  0
 17 18  1  1  0  0  0
 17 16  1  0  0  0  0
 19 40  1  0  0  0  0
 20 11  1  0  0  0  0
 21 25  2  0  0  0  0
 21 17  1  0  0  0  0
 22 21  1  0  0  0  0
 23 22  2  0  0  0  0
 23 24  1  0  0  0  0
 26 27  1  0  0  0  0
 26 12  2  0  0  0  0
 27 28  1  0  0  0  0
 28 29  2  0  0  0  0
 29 30  1  0  0  0  0
 31 26  1  0  0  0  0
 32 29  1  0  0  0  0
 33 34  1  0  0  0  0
 33 32  1  0  0  0  0
 34 35  1  0  0  0  0
 35 39  1  0  0  0  0
 35 38  1  0  0  0  0
 36 35  1  0  0  0  0
 37 32  1  0  0  0  0
 41  9  1  0  0  0  0
 41 40  1  0  0  0  0
M  END
>  <minimizedAffinity>
-8.47407341

$$$$
