
 OpenBabel07312502283D

 41 42  0  0  1  0  0  0  0  0999 V2000
   13.4570   34.2270  -18.4840 N   0  0  0  0  0  0  0  0  0  0  0  0
   14.2050   33.0520  -18.4370 C   0  0  0  0  0  0  0  0  0  0  0  0
   15.3240   32.9060  -19.2530 N   0  0  0  0  0  4  0  0  0  0  0  0
   16.0720   31.7320  -19.2060 C   0  0  0  0  0  0  0  0  0  0  0  0
   15.7010   30.7040  -18.3430 N   0  0  0  0  0  0  0  0  0  0  0  0
   14.5810   30.8500  -17.5260 C   0  0  0  0  0  3  0  0  0  0  0  0
   13.8210   31.9890  -17.5440 C   0  0  0  0  0  0  0  0  0  0  0  0
   12.6640   32.1400  -16.7010 C   0  0  0  0  0  3  0  0  0  0  0  0
   11.8910   33.3540  -16.7490 C   0  0  0  0  0  3  0  0  0  0  0  0
   13.8280   35.2550  -19.3470 C   0  0  0  0  0  2  0  0  0  0  0  0
   13.1470   36.3260  -19.3900 O   0  0  0  0  0  0  0  0  0  0  0  0
   17.2530   31.5780  -20.0660 N   0  0  0  0  0  4  0  0  0  0  0  0
   17.8010   30.7190  -20.0330 H   0  0  0  0  0  0  0  0  0  0  0  0
   12.2960   34.4760  -17.6910 C   0  0  2  0  0  3  0  0  0  0  0  0
   11.5680   34.6850  -18.9170 C   0  0  0  0  0  3  0  0  0  0  0  0
   10.4590   33.8300  -19.2500 C   0  0  0  0  0  3  0  0  0  0  0  0
    9.7320   34.0390  -20.4760 C   0  0  2  0  0  3  0  0  0  0  0  0
    8.6220   33.1840  -20.8100 C   0  0  0  0  0  1  0  0  0  0  0  0
   13.4060   35.3310  -17.3580 C   0  0  0  0  0  2  0  0  0  0  0  0
   12.0420   36.0000  -20.0200 Cl  0  0  0  0  0  0  0  0  0  0  0  0
   10.1370   35.1620  -21.4180 C   0  0  0  0  0  0  0  0  0  0  0  0
   11.0670   34.9050  -22.4870 C   0  0  0  0  0  3  0  0  0  0  0  0
   11.5960   33.6280  -22.6590 N   0  0  0  0  0  0  0  0  0  0  0  0
   11.2250   32.5990  -21.7960 C   0  0  0  0  0  1  0  0  0  0  0  0
    9.4850   36.7340  -21.2060 S   0  0  0  0  0  0  0  0  0  0  0  0
   17.6450   32.6630  -20.9780 C   0  0  0  0  0  0  0  0  0  0  0  0
   18.3900   33.7900  -20.4780 C   0  0  0  0  0  2  0  0  0  0  0  0
   18.7490   33.8540  -19.0840 C   0  0  0  0  0  3  0  0  0  0  0  0
   19.4920   34.9820  -18.5840 C   0  0  0  0  0  0  0  0  0  0  0  0
   19.8510   35.0460  -17.1900 C   0  0  0  0  0  1  0  0  0  0  0  0
   17.2870   32.5980  -22.3710 C   0  0  0  0  0  1  0  0  0  0  0  0
   19.8850   36.0660  -19.4950 N   0  0  0  0  0  0  0  0  0  0  0  0
   21.0710   35.9150  -20.3500 C   0  0  0  0  0  2  0  0  0  0  0  0
   22.2990   35.7040  -19.4790 C   0  0  0  0  0  2  0  0  0  0  0  0
   22.1220   34.4920  -18.6680 N   0  0  0  0  0  4  0  0  0  0  0  0
   21.9440   33.3310  -19.5520 C   0  0  0  0  0  1  0  0  0  0  0  0
   19.0910   37.3020  -19.5520 C   0  0  0  0  0  1  0  0  0  0  0  0
   23.3090   34.2880  -17.8250 C   0  0  0  0  0  1  0  0  0  0  0  0
   21.2990   34.5970  -18.0740 H   0  0  0  0  0  0  0  0  0  0  0  0
   12.6850   35.0400  -16.3150 C   0  0  0  0  0  2  0  0  0  0  0  0
   12.2750   34.3810  -17.6220 C   0  0  0  0  0  2  0  0  0  0  0  0
  1  2  1  0  0  0  0
  1 14  1  0  0  0  0
  2  7  1  0  0  0  0
  3  4  2  0  0  0  0
  3  2  2  0  0  0  0
  4  5  2  0  0  0  0
  5  6  1  0  0  0  0
  7  6  2  0  0  0  0
  7  8  1  0  0  0  0
  9  8  2  0  0  0  0
 10  1  1  0  0  0  0
 11 10  1  0  0  0  0
 12 13  1  0  0  0  0
 12  4  1  0  0  0  0
 14 15  1  6  0  0  0
 14 19  1  0  0  0  0
 16 15  2  0  0  0  0
 17 18  1  6  0  0  0
 17 16  1  0  0  0  0
 19 40  1  0  0  0  0
 20 11  1  0  0  0  0
 21 25  2  0  0  0  0
 21 17  1  0  0  0  0
 22 21  1  0  0  0  0
 23 22  2  0  0  0  0
 23 24  1  0  0  0  0
 26 27  1  0  0  0  0
 26 12  2  0  0  0  0
 27 28  1  0  0  0  0
 28 29  2  0  0  0  0
 29 30  1  0  0  0  0
 31 26  1  0  0  0  0
 32 29  1  0  0  0  0
 33 32  1  0  0  0  0
 33 34  1  0  0  0  0
 34 35  1  0  0  0  0
 35 39  1  0  0  0  0
 35 38  1  0  0  0  0
 36 35  1  0  0  0  0
 37 32  1  0  0  0  0
 41  9  1  0  0  0  0
 41 40  1  0  0  0  0
M  END
>  <minimizedAffinity>
-8.499403

$$$$
