
 OpenBabel07312502283D

 41 43  0  0  1  0  0  0  0  0999 V2000
   13.9720   33.0180  -17.0090 N   0  0  0  0  0  4  0  0  0  0  0  0
   14.8740   33.8340  -16.3290 C   0  0  0  0  0  0  0  0  0  0  0  0
   16.2050   33.8900  -16.7360 N   0  0  0  0  0  4  0  0  0  0  0  0
   17.1070   34.7050  -16.0570 C   0  0  0  0  0  0  0  0  0  0  0  0
   16.6800   35.4640  -14.9710 N   0  0  0  0  0  0  0  0  0  0  0  0
   15.3480   35.4080  -14.5640 C   0  0  0  0  0  3  0  0  0  0  0  0
   14.4310   34.6190  -15.2060 C   0  0  0  0  0  0  0  0  0  0  0  0
   13.0550   34.5600  -14.7850 C   0  0  0  0  0  3  0  0  0  0  0  0
   12.1220   33.7180  -15.4880 C   0  0  0  0  0  3  0  0  0  0  0  0
   14.4000   32.2600  -18.0950 C   0  0  0  0  0  2  0  0  0  0  0  0
   13.5770   31.5170  -18.7150 O   0  0  0  0  0  0  0  0  0  0  0  0
   18.5110   34.7640  -16.4870 N   0  0  0  0  0  4  0  0  0  0  0  0
   19.1730   35.3610  -15.9900 H   0  0  0  0  0  0  0  0  0  0  0  0
   12.5900   32.8890  -16.6730 C   0  0  1  0  0  3  0  0  0  0  0  0
   12.0600   33.1490  -17.9870 C   0  0  0  0  0  3  0  0  0  0  0  0
   11.0870   34.1930  -18.1780 C   0  0  0  0  0  3  0  0  0  0  0  0
   10.5570   34.4520  -19.4920 C   0  0  2  0  0  3  0  0  0  0  0  0
    9.5830   35.4960  -19.6830 C   0  0  0  0  0  1  0  0  0  0  0  0
   13.5630   31.8450  -16.4820 C   0  0  2  0  0  3  0  0  0  0  0  0
   12.6080   32.1790  -19.3750 Cl  0  0  0  0  0  0  0  0  0  0  0  0
   11.0250   33.6240  -20.6770 C   0  0  0  0  0  0  0  0  0  0  0  0
   12.1350   34.0740  -21.4780 C   0  0  0  0  0  3  0  0  0  0  0  0
   12.7790   35.2690  -21.1650 N   0  0  0  0  0  0  0  0  0  0  0  0
   12.3500   36.0280  -20.0790 C   0  0  0  0  0  1  0  0  0  0  0  0
   10.2310   32.1520  -21.0620 S   0  0  0  0  0  0  0  0  0  0  0  0
   18.9640   33.9630  -17.6330 C   0  0  0  0  0  0  0  0  0  0  0  0
   20.1220   34.3730  -18.3860 C   0  0  0  0  0  3  0  0  0  0  0  0
   20.8340   35.5690  -18.0160 C   0  0  0  0  0  3  0  0  0  0  0  0
   21.9910   35.9800  -18.7690 C   0  0  2  0  0  3  0  0  0  0  0  0
   22.7030   37.1760  -18.3990 C   0  0  0  0  0  1  0  0  0  0  0  0
   18.2520   32.7670  -18.0030 C   0  0  0  0  0  1  0  0  0  0  0  0
   22.4440   35.1790  -19.9150 N   0  0  0  0  0  0  0  0  0  0  0  0
   22.3030   35.7040  -21.2800 C   0  0  0  0  0  2  0  0  0  0  0  0
   20.8340   35.9650  -21.5740 C   0  0  0  0  0  2  0  0  0  0  0  0
   20.3110   36.9470  -20.6140 N   0  0  0  0  0  4  0  0  0  0  0  0
   21.0650   38.2040  -20.7370 C   0  0  0  0  0  1  0  0  0  0  0  0
   23.0400   33.8530  -19.6950 C   0  0  0  0  0  1  0  0  0  0  0  0
   18.8900   37.2000  -20.8970 C   0  0  0  0  0  1  0  0  0  0  0  0
   20.4080   36.5830  -19.6660 H   0  0  0  0  0  0  0  0  0  0  0  0
   12.3990   31.8560  -15.5470 C   0  0  0  0  0  2  0  0  0  0  0  0
   12.5670   32.9590  -16.5790 C   0  0  0  0  0  2  0  0  0  0  0  0
  1 14  1  0  0  0  0
  1 19  1  0  0  0  0
  1  2  1  0  0  0  0
  2  7  1  0  0  0  0
  3  2  2  0  0  0  0
  3  4  2  0  0  0  0
  4  5  2  0  0  0  0
  5  6  1  0  0  0  0
  7  8  1  0  0  0  0
  7  6  2  0  0  0  0
  9  8  2  0  0  0  0
 10  1  1  0  0  0  0
 11 10  1  0  0  0  0
 12  4  1  0  0  0  0
 12 13  1  0  0  0  0
 14 15  1  6  0  0  0
 14 19  1  0  0  0  0
 16 15  2  0  0  0  0
 17 18  1  1  0  0  0
 17 16  1  0  0  0  0
 19 40  1  1  0  0  0
 20 11  1  0  0  0  0
 21 17  1  0  0  0  0
 22 23  2  0  0  0  0
 22 21  1  0  0  0  0
 23 24  1  0  0  0  0
 25 21  2  0  0  0  0
 26 12  2  0  0  0  0
 27 28  2  0  0  0  0
 27 26  1  0  0  0  0
 29 30  1  6  0  0  0
 29 28  1  0  0  0  0
 31 26  1  0  0  0  0
 32 37  1  0  0  0  0
 32 29  1  0  0  0  0
 33 32  1  0  0  0  0
 34 33  1  0  0  0  0
 34 35  1  0  0  0  0
 35 39  1  0  0  0  0
 36 35  1  0  0  0  0
 38 35  1  0  0  0  0
 41 40  1  0  0  0  0
 41  9  1  0  0  0  0
M  END
>  <minimizedAffinity>
-8.10135555

$$$$
